 xtb: 6.7.1pre (5071a88)
          08312621553D

 97108  0     0  0            999 V2000
    3.9844    2.9524    8.6155 C   0  0  0  0  0  0  0  0  0  0  0  0
    3.4557    2.0289    9.5692 O   0  0  0  0  0  0  0  0  0  0  0  0
    2.8498    0.9833    8.9037 C   0  0  0  0  0  0  0  0  0  0  0  0
    1.4655    1.1105    8.6924 C   0  0  0  0  0  0  0  0  0  0  0  0
    0.7523    0.1401    7.9945 C   0  0  0  0  0  0  0  0  0  0  0  0
   -0.6151    0.2147    7.7181 N   0  0  0  0  0  0  0  0  0  0  0  0
   -1.6107    1.1407    8.0060 C   0  0  0  0  0  0  0  0  0  0  0  0
   -1.3571    2.3093    8.6004 N   0  0  0  0  0  0  0  0  0  0  0  0
   -2.4112    3.1186    8.8263 C   0  0  0  0  0  0  0  0  0  0  0  0
   -3.7146    2.8070    8.5067 C   0  0  0  0  0  0  0  0  0  0  0  0
   -4.9307    3.9735    8.8231 Cl  0  0  0  0  0  0  0  0  0  0  0  0
   -3.8978    1.5674    7.9179 C   0  0  0  0  0  0  0  0  0  0  0  0
   -5.1423    1.0202    7.5158 N   0  0  0  0  0  0  0  0  0  0  0  0
   -6.2522    0.8372    8.3868 C   0  0  0  0  0  0  0  0  0  0  0  0
   -7.2878    1.7832    8.3564 C   0  0  0  0  0  0  0  0  0  0  0  0
   -8.3610    1.7070    9.2421 C   0  0  0  0  0  0  0  0  0  0  0  0
   -8.4143    0.6770   10.1720 C   0  0  0  0  0  0  0  0  0  0  0  0
   -7.4072   -0.2879   10.1980 C   0  0  0  0  0  0  0  0  0  0  0  0
   -6.3252   -0.2342    9.3007 C   0  0  0  0  0  0  0  0  0  0  0  0
   -5.1183   -1.5338    9.2865 P   0  0  0  0  0  0  0  0  0  0  0  0
   -4.4854   -1.7954    7.9397 O   0  0  0  0  0  0  0  0  0  0  0  0
   -3.8681   -1.1819   10.5271 C   0  0  0  0  0  0  0  0  0  0  0  0
   -5.8337   -3.0733    9.8882 C   0  0  0  0  0  0  0  0  0  0  0  0
   -2.8468    0.7614    7.6503 N   0  0  0  0  0  0  0  0  0  0  0  0
    1.4766   -0.9540    7.5079 C   0  0  0  0  0  0  0  0  0  0  0  0
    2.8554   -1.0901    7.7404 C   0  0  0  0  0  0  0  0  0  0  0  0
    3.5852   -0.1411    8.4698 C   0  0  0  0  0  0  0  0  0  0  0  0
    4.9448   -0.3051    8.7187 N   0  0  0  0  0  0  0  0  0  0  0  0
    5.4875    0.1021   10.0327 C   0  0  0  0  0  0  0  0  0  0  0  0
    6.5384   -0.9127   10.5440 C   0  0  0  0  0  0  0  0  0  0  0  0
    7.6853   -1.1140    9.6303 N   0  0  0  0  0  0  0  0  0  0  0  0
    8.3544   -2.3787    9.9196 C   0  0  0  0  0  0  0  0  0  0  0  0
    7.2654   -1.0222    8.2151 C   0  0  0  0  0  0  0  0  0  0  0  0
    5.7595   -1.2612    7.9555 C   0  0  0  0  0  0  0  0  0  0  0  0
    3.1853    3.3947    8.0103 H   0  0  0  0  0  0  0  0  0  0  0  0
    4.7354    2.4846    7.9697 H   0  0  0  0  0  0  0  0  0  0  0  0
    4.4734    3.7592    9.1697 H   0  0  0  0  0  0  0  0  0  0  0  0
    0.9731    1.9953    9.0815 H   0  0  0  0  0  0  0  0  0  0  0  0
   -1.0442   -0.5978    7.2954 H   0  0  0  0  0  0  0  0  0  0  0  0
   -2.1573    4.0682    9.2898 H   0  0  0  0  0  0  0  0  0  0  0  0
   -4.8494    0.0879    7.1769 H   0  0  0  0  0  0  0  0  0  0  0  0
   -7.2566    2.5931    7.6304 H   0  0  0  0  0  0  0  0  0  0  0  0
   -9.1482    2.4554    9.2056 H   0  0  0  0  0  0  0  0  0  0  0  0
   -9.2473    0.6169   10.8683 H   0  0  0  0  0  0  0  0  0  0  0  0
   -7.4869   -1.0924   10.9241 H   0  0  0  0  0  0  0  0  0  0  0  0
   -3.3628   -0.2367   10.3184 H   0  0  0  0  0  0  0  0  0  0  0  0
   -4.3226   -1.1144   11.5197 H   0  0  0  0  0  0  0  0  0  0  0  0
   -3.1187   -1.9782   10.5454 H   0  0  0  0  0  0  0  0  0  0  0  0
   -5.0913   -3.8746    9.8298 H   0  0  0  0  0  0  0  0  0  0  0  0
   -6.6949   -3.3560    9.2765 H   0  0  0  0  0  0  0  0  0  0  0  0
   -6.1523   -2.9860   10.9302 H   0  0  0  0  0  0  0  0  0  0  0  0
    0.9724   -1.7327    6.9397 H   0  0  0  0  0  0  0  0  0  0  0  0
    3.3370   -1.9825    7.3524 H   0  0  0  0  0  0  0  0  0  0  0  0
    5.9515    1.0911    9.9413 H   0  0  0  0  0  0  0  0  0  0  0  0
    4.6992    0.1596   10.7931 H   0  0  0  0  0  0  0  0  0  0  0  0
    6.9184   -0.5722   11.5143 H   0  0  0  0  0  0  0  0  0  0  0  0
    6.0204   -1.8664   10.7181 H   0  0  0  0  0  0  0  0  0  0  0  0
    9.2613   -2.4801    9.3133 H   0  0  0  0  0  0  0  0  0  0  0  0
    8.6724   -2.4156   10.9675 H   0  0  0  0  0  0  0  0  0  0  0  0
    7.7098   -3.2429    9.7226 H   0  0  0  0  0  0  0  0  0  0  0  0
    7.5088   -0.0056    7.8790 H   0  0  0  0  0  0  0  0  0  0  0  0
    7.8567   -1.6929    7.5794 H   0  0  0  0  0  0  0  0  0  0  0  0
    5.4999   -2.2905    8.2327 H   0  0  0  0  0  0  0  0  0  0  0  0
    5.5767   -1.1374    6.8812 H   0  0  0  0  0  0  0  0  0  0  0  0
   -2.1419   -3.0088    2.1197 Ti  0  0  0  0  0  0  0  0  0  0  0  0
    0.2890   -1.6948    1.4324 Ti  0  0  0  0  0  0  0  0  0  0  0  0
    1.9031   -3.0677   -0.7293 Ti  0  0  0  0  0  0  0  0  0  0  0  0
   -2.5215   -0.2519    1.3037 Ti  0  0  0  0  0  0  0  0  0  0  0  0
    2.1420    0.4995    2.2044 Ti  0  0  0  0  0  0  0  0  0  0  0  0
   -0.6814    0.1896    3.6812 Ti  0  0  0  0  0  0  0  0  0  0  0  0
   -2.0368   -3.0777   -1.2005 Ti  0  0  0  0  0  0  0  0  0  0  0  0
   -0.6053   -0.7709   -2.0351 Ti  0  0  0  0  0  0  0  0  0  0  0  0
    1.9455   -1.5873   -3.4124 Ti  0  0  0  0  0  0  0  0  0  0  0  0
   -1.8782    1.7466   -1.2400 Ti  0  0  0  0  0  0  0  0  0  0  0  0
    2.4125    0.4542   -0.7742 Ti  0  0  0  0  0  0  0  0  0  0  0  0
    0.8177    1.8385   -2.9400 Ti  0  0  0  0  0  0  0  0  0  0  0  0
   -3.6784    1.2814    0.6007 C   0  0  0  0  0  0  0  0  0  0  0  0
    4.1282    0.4828    0.3873 C   0  0  0  0  0  0  0  0  0  0  0  0
    0.4555    2.2672    0.3497 C   0  0  0  0  0  0  0  0  0  0  0  0
   -3.6667    2.1188   -0.3139 C   0  0  0  0  0  0  0  0  0  0  0  0
    4.1160    0.6322    1.6214 C   0  0  0  0  0  0  0  0  0  0  0  0
   -0.6352    2.7410   -0.1189 C   0  0  0  0  0  0  0  0  0  0  0  0
    1.6301    1.7810    0.7342 C   0  0  0  0  0  0  0  0  0  0  0  0
   -3.0935   -1.9569    1.0379 O   0  0  0  0  0  0  0  0  0  0  0  0
   -0.4872   -2.6058    2.7012 O   0  0  0  0  0  0  0  0  0  0  0  0
    0.3141   -2.8889    0.1450 O   0  0  0  0  0  0  0  0  0  0  0  0
   -0.8008   -0.4359    0.9712 O   0  0  0  0  0  0  0  0  0  0  0  0
    1.9029   -1.1583    1.4694 O   0  0  0  0  0  0  0  0  0  0  0  0
   -2.3227   -0.1139    3.0248 O   0  0  0  0  0  0  0  0  0  0  0  0
    1.0138    0.4416    3.5688 O   0  0  0  0  0  0  0  0  0  0  0  0
   -1.7720   -4.5879   -1.6528 O   0  0  0  0  0  0  0  0  0  0  0  0
    0.1906   -1.1892   -3.5340 O   0  0  0  0  0  0  0  0  0  0  0  0
    2.8314   -2.1702   -1.9180 O   0  0  0  0  0  0  0  0  0  0  0  0
   -2.0546   -0.2244   -1.3375 O   0  0  0  0  0  0  0  0  0  0  0  0
    0.7685   -0.3906   -1.0637 O   0  0  0  0  0  0  0  0  0  0  0  0
   -0.9000    1.6493   -2.8186 O   0  0  0  0  0  0  0  0  0  0  0  0
    2.4153    1.3575   -2.2641 O   0  0  0  0  0  0  0  0  0  0  0  0
  1  2  1  0  0  0  0
  2  3  1  0  0  0  0
  3  4  4  0  0  0  0
  4  5  4  0  0  0  0
  5  6  1  0  0  0  0
  6  7  1  0  0  0  0
  7  8  4  0  0  0  0
  8  9  4  0  0  0  0
  9 10  4  0  0  0  0
 10 11  1  0  0  0  0
 10 12  4  0  0  0  0
 12 13  1  0  0  0  0
 13 14  1  0  0  0  0
 14 15  4  0  0  0  0
 15 16  4  0  0  0  0
 16 17  4  0  0  0  0
 17 18  4  0  0  0  0
 14 19  4  0  0  0  0
 18 19  4  0  0  0  0
 19 20  1  0  0  0  0
 20 21  2  0  0  0  0
 20 22  1  0  0  0  0
 20 23  1  0  0  0  0
  7 24  4  0  0  0  0
 12 24  4  0  0  0  0
  5 25  4  0  0  0  0
 25 26  4  0  0  0  0
  3 27  4  0  0  0  0
 26 27  4  0  0  0  0
 27 28  1  0  0  0  0
 28 29  1  0  0  0  0
 29 30  1  0  0  0  0
 30 31  1  0  0  0  0
 31 32  1  0  0  0  0
 31 33  1  0  0  0  0
 28 34  1  0  0  0  0
 33 34  1  0  0  0  0
  1 35  1  0  0  0  0
  1 36  1  0  0  0  0
  1 37  1  0  0  0  0
  4 38  1  0  0  0  0
  6 39  1  0  0  0  0
  9 40  1  0  0  0  0
 13 41  1  0  0  0  0
 15 42  1  0  0  0  0
 16 43  1  0  0  0  0
 17 44  1  0  0  0  0
 18 45  1  0  0  0  0
 22 46  1  0  0  0  0
 22 47  1  0  0  0  0
 22 48  1  0  0  0  0
 23 49  1  0  0  0  0
 23 50  1  0  0  0  0
 23 51  1  0  0  0  0
 25 52  1  0  0  0  0
 26 53  1  0  0  0  0
 29 54  1  0  0  0  0
 29 55  1  0  0  0  0
 30 56  1  0  0  0  0
 30 57  1  0  0  0  0
 32 58  1  0  0  0  0
 32 59  1  0  0  0  0
 32 60  1  0  0  0  0
 33 61  1  0  0  0  0
 33 62  1  0  0  0  0
 34 63  1  0  0  0  0
 34 64  1  0  0  0  0
 65 71  1  0  0  0  0
 71 72  1  0  0  0  0
 67 73  1  0  0  0  0
 68 77  1  0  0  0  0
 75 78  1  0  0  0  0
 74 80  1  0  0  0  0
 77 80  3  0  0  0  0
 69 81  1  0  0  0  0
 78 81  3  0  0  0  0
 74 82  1  0  0  0  0
 79 82  2  0  0  0  0
 69 83  1  0  0  0  0
 75 83  1  0  0  0  0
 79 83  2  0  0  0  0
 65 84  1  0  0  0  0
 68 84  1  0  0  0  0
 65 85  1  0  0  0  0
 66 85  1  0  0  0  0
 66 86  1  0  0  0  0
 67 86  1  0  0  0  0
 66 87  1  0  0  0  0
 68 87  1  0  0  0  0
 66 88  1  0  0  0  0
 69 88  1  0  0  0  0
 68 89  1  0  0  0  0
 70 89  1  0  0  0  0
 69 90  1  0  0  0  0
 70 90  1  0  0  0  0
 71 91  2  0  0  0  0
 72 92  1  0  0  0  0
 73 92  1  0  0  0  0
 67 93  1  0  0  0  0
 73 93  1  0  0  0  0
 72 94  1  0  0  0  0
 74 94  1  0  0  0  0
 72 95  1  0  0  0  0
 75 95  1  0  0  0  0
 74 96  1  0  0  0  0
 76 96  1  0  0  0  0
 75 97  1  0  0  0  0
 76 97  1  0  0  0  0
M  END
