 xtb: 6.7.1pre (5071a88)
          08312621183D

 97108  0     0  0            999 V2000
    4.5560   -2.6845   11.0724 C   0  0  0  0  0  0  0  0  0  0  0  0
    4.0322   -2.2653    9.8122 O   0  0  0  0  0  0  0  0  0  0  0  0
    3.3161   -1.0944    9.9357 C   0  0  0  0  0  0  0  0  0  0  0  0
    1.9488   -1.1977    9.6336 C   0  0  0  0  0  0  0  0  0  0  0  0
    1.1027   -0.0945    9.7299 C   0  0  0  0  0  0  0  0  0  0  0  0
   -0.2696   -0.1301    9.4670 N   0  0  0  0  0  0  0  0  0  0  0  0
   -1.1623   -1.1346    9.1078 C   0  0  0  0  0  0  0  0  0  0  0  0
   -0.7855   -2.4127    8.9827 N   0  0  0  0  0  0  0  0  0  0  0  0
   -1.7364   -3.3019    8.6359 C   0  0  0  0  0  0  0  0  0  0  0  0
   -3.0496   -2.9666    8.4134 C   0  0  0  0  0  0  0  0  0  0  0  0
   -4.1885   -4.1741    7.9683 Cl  0  0  0  0  0  0  0  0  0  0  0  0
   -3.3693   -1.6245    8.5690 C   0  0  0  0  0  0  0  0  0  0  0  0
   -4.7043   -1.1995    8.3384 N   0  0  0  0  0  0  0  0  0  0  0  0
   -5.2202    0.1150    8.2707 C   0  0  0  0  0  0  0  0  0  0  0  0
   -4.4632    1.1631    7.7229 C   0  0  0  0  0  0  0  0  0  0  0  0
   -4.9805    2.4547    7.6079 C   0  0  0  0  0  0  0  0  0  0  0  0
   -6.2769    2.7215    8.0271 C   0  0  0  0  0  0  0  0  0  0  0  0
   -7.0550    1.6942    8.5554 C   0  0  0  0  0  0  0  0  0  0  0  0
   -6.5437    0.3883    8.6790 C   0  0  0  0  0  0  0  0  0  0  0  0
   -7.5758   -0.8816    9.3608 P   0  0  0  0  0  0  0  0  0  0  0  0
   -6.9043   -2.2252    9.5356 O   0  0  0  0  0  0  0  0  0  0  0  0
   -8.2413   -0.3318   10.9369 C   0  0  0  0  0  0  0  0  0  0  0  0
   -9.0401   -1.0613    8.3357 C   0  0  0  0  0  0  0  0  0  0  0  0
   -2.4236   -0.7179    8.9068 N   0  0  0  0  0  0  0  0  0  0  0  0
    1.6769    1.1196   10.1295 C   0  0  0  0  0  0  0  0  0  0  0  0
    3.0478    1.2322   10.4077 C   0  0  0  0  0  0  0  0  0  0  0  0
    3.9077    0.1314   10.3102 C   0  0  0  0  0  0  0  0  0  0  0  0
    5.2938    0.2394   10.5202 N   0  0  0  0  0  0  0  0  0  0  0  0
    6.0492    0.1120    9.2456 C   0  0  0  0  0  0  0  0  0  0  0  0
    7.5129    0.5756    9.4226 C   0  0  0  0  0  0  0  0  0  0  0  0
    7.6404    1.9984    9.8184 N   0  0  0  0  0  0  0  0  0  0  0  0
    8.9381    2.2393   10.4427 C   0  0  0  0  0  0  0  0  0  0  0  0
    6.5202    2.4160   10.6914 C   0  0  0  0  0  0  0  0  0  0  0  0
    5.8166    1.2655   11.4445 C   0  0  0  0  0  0  0  0  0  0  0  0
    3.9079   -2.4128   11.9142 H   0  0  0  0  0  0  0  0  0  0  0  0
    5.5638   -2.2865   11.2211 H   0  0  0  0  0  0  0  0  0  0  0  0
    4.6329   -3.7761   11.0512 H   0  0  0  0  0  0  0  0  0  0  0  0
    1.5707   -2.1685    9.3306 H   0  0  0  0  0  0  0  0  0  0  0  0
   -0.7719    0.7438    9.5223 H   0  0  0  0  0  0  0  0  0  0  0  0
   -1.3901   -4.3266    8.5401 H   0  0  0  0  0  0  0  0  0  0  0  0
   -5.3512   -1.8666    8.7830 H   0  0  0  0  0  0  0  0  0  0  0  0
   -3.4558    0.9767    7.3585 H   0  0  0  0  0  0  0  0  0  0  0  0
   -4.3686    3.2451    7.1812 H   0  0  0  0  0  0  0  0  0  0  0  0
   -6.6827    3.7257    7.9354 H   0  0  0  0  0  0  0  0  0  0  0  0
   -8.0711    1.9193    8.8700 H   0  0  0  0  0  0  0  0  0  0  0  0
   -8.8321    0.5807   10.8211 H   0  0  0  0  0  0  0  0  0  0  0  0
   -8.8880   -1.1048   11.3618 H   0  0  0  0  0  0  0  0  0  0  0  0
   -7.4288   -0.1347   11.6417 H   0  0  0  0  0  0  0  0  0  0  0  0
   -8.7578   -1.3665    7.3243 H   0  0  0  0  0  0  0  0  0  0  0  0
   -9.5944   -0.1209    8.2739 H   0  0  0  0  0  0  0  0  0  0  0  0
   -9.7033   -1.8231    8.7551 H   0  0  0  0  0  0  0  0  0  0  0  0
    1.0604    2.0113   10.2173 H   0  0  0  0  0  0  0  0  0  0  0  0
    3.4275    2.2155   10.6659 H   0  0  0  0  0  0  0  0  0  0  0  0
    5.5796    0.7133    8.4549 H   0  0  0  0  0  0  0  0  0  0  0  0
    6.0569   -0.9320    8.9139 H   0  0  0  0  0  0  0  0  0  0  0  0
    7.9835   -0.0753   10.1726 H   0  0  0  0  0  0  0  0  0  0  0  0
    8.0523    0.4256    8.4802 H   0  0  0  0  0  0  0  0  0  0  0  0
    9.0513    1.6945   11.3868 H   0  0  0  0  0  0  0  0  0  0  0  0
    9.0745    3.3078   10.6430 H   0  0  0  0  0  0  0  0  0  0  0  0
    9.7503    1.9403    9.7706 H   0  0  0  0  0  0  0  0  0  0  0  0
    5.7821    2.9101   10.0470 H   0  0  0  0  0  0  0  0  0  0  0  0
    6.8427    3.1797   11.4100 H   0  0  0  0  0  0  0  0  0  0  0  0
    6.5462    0.7766   12.1031 H   0  0  0  0  0  0  0  0  0  0  0  0
    5.0439    1.6604   12.1139 H   0  0  0  0  0  0  0  0  0  0  0  0
   -2.1419   -3.0088    2.1197 Ti  0  0  0  0  0  0  0  0  0  0  0  0
    0.2890   -1.6948    1.4324 Ti  0  0  0  0  0  0  0  0  0  0  0  0
    1.9031   -3.0677   -0.7293 Ti  0  0  0  0  0  0  0  0  0  0  0  0
   -2.5215   -0.2519    1.3037 Ti  0  0  0  0  0  0  0  0  0  0  0  0
    2.1420    0.4995    2.2044 Ti  0  0  0  0  0  0  0  0  0  0  0  0
   -0.6814    0.1896    3.6812 Ti  0  0  0  0  0  0  0  0  0  0  0  0
   -2.0368   -3.0777   -1.2005 Ti  0  0  0  0  0  0  0  0  0  0  0  0
   -0.6053   -0.7709   -2.0351 Ti  0  0  0  0  0  0  0  0  0  0  0  0
    1.9455   -1.5873   -3.4124 Ti  0  0  0  0  0  0  0  0  0  0  0  0
   -1.8782    1.7466   -1.2400 Ti  0  0  0  0  0  0  0  0  0  0  0  0
    2.4125    0.4542   -0.7742 Ti  0  0  0  0  0  0  0  0  0  0  0  0
    0.8177    1.8385   -2.9400 Ti  0  0  0  0  0  0  0  0  0  0  0  0
   -3.6784    1.2814    0.6007 C   0  0  0  0  0  0  0  0  0  0  0  0
    4.1282    0.4828    0.3873 C   0  0  0  0  0  0  0  0  0  0  0  0
    0.4555    2.2672    0.3497 C   0  0  0  0  0  0  0  0  0  0  0  0
   -3.6667    2.1188   -0.3139 C   0  0  0  0  0  0  0  0  0  0  0  0
    4.1160    0.6322    1.6214 C   0  0  0  0  0  0  0  0  0  0  0  0
   -0.6352    2.7410   -0.1189 C   0  0  0  0  0  0  0  0  0  0  0  0
    1.6301    1.7810    0.7342 C   0  0  0  0  0  0  0  0  0  0  0  0
   -3.0935   -1.9569    1.0379 O   0  0  0  0  0  0  0  0  0  0  0  0
   -0.4872   -2.6058    2.7012 O   0  0  0  0  0  0  0  0  0  0  0  0
    0.3141   -2.8889    0.1450 O   0  0  0  0  0  0  0  0  0  0  0  0
   -0.8008   -0.4359    0.9712 O   0  0  0  0  0  0  0  0  0  0  0  0
    1.9029   -1.1583    1.4694 O   0  0  0  0  0  0  0  0  0  0  0  0
   -2.3227   -0.1139    3.0248 O   0  0  0  0  0  0  0  0  0  0  0  0
    1.0138    0.4416    3.5688 O   0  0  0  0  0  0  0  0  0  0  0  0
   -1.7720   -4.5879   -1.6528 O   0  0  0  0  0  0  0  0  0  0  0  0
    0.1906   -1.1892   -3.5340 O   0  0  0  0  0  0  0  0  0  0  0  0
    2.8314   -2.1702   -1.9180 O   0  0  0  0  0  0  0  0  0  0  0  0
   -2.0546   -0.2244   -1.3375 O   0  0  0  0  0  0  0  0  0  0  0  0
    0.7685   -0.3906   -1.0637 O   0  0  0  0  0  0  0  0  0  0  0  0
   -0.9000    1.6493   -2.8186 O   0  0  0  0  0  0  0  0  0  0  0  0
    2.4153    1.3575   -2.2641 O   0  0  0  0  0  0  0  0  0  0  0  0
  1  2  1  0  0  0  0
  2  3  1  0  0  0  0
  3  4  4  0  0  0  0
  4  5  4  0  0  0  0
  5  6  1  0  0  0  0
  6  7  1  0  0  0  0
  7  8  4  0  0  0  0
  8  9  4  0  0  0  0
  9 10  4  0  0  0  0
 10 11  1  0  0  0  0
 10 12  4  0  0  0  0
 12 13  1  0  0  0  0
 13 14  1  0  0  0  0
 14 15  4  0  0  0  0
 15 16  4  0  0  0  0
 16 17  4  0  0  0  0
 17 18  4  0  0  0  0
 14 19  4  0  0  0  0
 18 19  4  0  0  0  0
 19 20  1  0  0  0  0
 20 21  2  0  0  0  0
 20 22  1  0  0  0  0
 20 23  1  0  0  0  0
  7 24  4  0  0  0  0
 12 24  4  0  0  0  0
  5 25  4  0  0  0  0
 25 26  4  0  0  0  0
  3 27  4  0  0  0  0
 26 27  4  0  0  0  0
 27 28  1  0  0  0  0
 28 29  1  0  0  0  0
 29 30  1  0  0  0  0
 30 31  1  0  0  0  0
 31 32  1  0  0  0  0
 31 33  1  0  0  0  0
 28 34  1  0  0  0  0
 33 34  1  0  0  0  0
  1 35  1  0  0  0  0
  1 36  1  0  0  0  0
  1 37  1  0  0  0  0
  4 38  1  0  0  0  0
  6 39  1  0  0  0  0
  9 40  1  0  0  0  0
 13 41  1  0  0  0  0
 15 42  1  0  0  0  0
 16 43  1  0  0  0  0
 17 44  1  0  0  0  0
 18 45  1  0  0  0  0
 22 46  1  0  0  0  0
 22 47  1  0  0  0  0
 22 48  1  0  0  0  0
 23 49  1  0  0  0  0
 23 50  1  0  0  0  0
 23 51  1  0  0  0  0
 25 52  1  0  0  0  0
 26 53  1  0  0  0  0
 29 54  1  0  0  0  0
 29 55  1  0  0  0  0
 30 56  1  0  0  0  0
 30 57  1  0  0  0  0
 32 58  1  0  0  0  0
 32 59  1  0  0  0  0
 32 60  1  0  0  0  0
 33 61  1  0  0  0  0
 33 62  1  0  0  0  0
 34 63  1  0  0  0  0
 34 64  1  0  0  0  0
 65 71  1  0  0  0  0
 71 72  1  0  0  0  0
 67 73  1  0  0  0  0
 68 77  1  0  0  0  0
 75 78  1  0  0  0  0
 74 80  1  0  0  0  0
 77 80  3  0  0  0  0
 69 81  1  0  0  0  0
 78 81  3  0  0  0  0
 74 82  1  0  0  0  0
 79 82  2  0  0  0  0
 69 83  1  0  0  0  0
 75 83  1  0  0  0  0
 79 83  2  0  0  0  0
 65 84  1  0  0  0  0
 68 84  1  0  0  0  0
 65 85  1  0  0  0  0
 66 85  1  0  0  0  0
 66 86  1  0  0  0  0
 67 86  1  0  0  0  0
 66 87  1  0  0  0  0
 68 87  1  0  0  0  0
 66 88  1  0  0  0  0
 69 88  1  0  0  0  0
 68 89  1  0  0  0  0
 70 89  1  0  0  0  0
 69 90  1  0  0  0  0
 70 90  1  0  0  0  0
 71 91  2  0  0  0  0
 72 92  1  0  0  0  0
 73 92  1  0  0  0  0
 67 93  1  0  0  0  0
 73 93  1  0  0  0  0
 72 94  1  0  0  0  0
 74 94  1  0  0  0  0
 72 95  1  0  0  0  0
 75 95  1  0  0  0  0
 74 96  1  0  0  0  0
 76 96  1  0  0  0  0
 75 97  1  0  0  0  0
 76 97  1  0  0  0  0
M  END
