 xtb: 6.7.1pre (5071a88)
          08312620353D

 97111  0     0  0            999 V2000
    4.5560   -2.6845    6.9728 C   0  0  0  0  0  0  0  0  0  0  0  0
    4.0322   -2.2653    5.7126 O   0  0  0  0  0  0  0  0  0  0  0  0
    3.3161   -1.0944    5.8361 C   0  0  0  0  0  0  0  0  0  0  0  0
    1.9488   -1.1977    5.5340 C   0  0  0  0  0  0  0  0  0  0  0  0
    1.1027   -0.0945    5.6303 C   0  0  0  0  0  0  0  0  0  0  0  0
   -0.2696   -0.1301    5.3674 N   0  0  0  0  0  0  0  0  0  0  0  0
   -1.1623   -1.1346    5.0082 C   0  0  0  0  0  0  0  0  0  0  0  0
   -0.7855   -2.4127    4.8832 N   0  0  0  0  0  0  0  0  0  0  0  0
   -1.7364   -3.3019    4.5363 C   0  0  0  0  0  0  0  0  0  0  0  0
   -3.0496   -2.9666    4.3139 C   0  0  0  0  0  0  0  0  0  0  0  0
   -4.1885   -4.1741    3.8687 Cl  0  0  0  0  0  0  0  0  0  0  0  0
   -3.3693   -1.6245    4.4694 C   0  0  0  0  0  0  0  0  0  0  0  0
   -4.7043   -1.1995    4.2388 N   0  0  0  0  0  0  0  0  0  0  0  0
   -5.2202    0.1150    4.1711 C   0  0  0  0  0  0  0  0  0  0  0  0
   -4.4632    1.1631    3.6233 C   0  0  0  0  0  0  0  0  0  0  0  0
   -4.9805    2.4547    3.5083 C   0  0  0  0  0  0  0  0  0  0  0  0
   -6.2769    2.7215    3.9275 C   0  0  0  0  0  0  0  0  0  0  0  0
   -7.0550    1.6942    4.4558 C   0  0  0  0  0  0  0  0  0  0  0  0
   -6.5437    0.3883    4.5794 C   0  0  0  0  0  0  0  0  0  0  0  0
   -7.5758   -0.8816    5.2612 P   0  0  0  0  0  0  0  0  0  0  0  0
   -6.9043   -2.2252    5.4361 O   0  0  0  0  0  0  0  0  0  0  0  0
   -8.2413   -0.3318    6.8373 C   0  0  0  0  0  0  0  0  0  0  0  0
   -9.0401   -1.0613    4.2361 C   0  0  0  0  0  0  0  0  0  0  0  0
   -2.4236   -0.7179    4.8072 N   0  0  0  0  0  0  0  0  0  0  0  0
    1.6769    1.1196    6.0299 C   0  0  0  0  0  0  0  0  0  0  0  0
    3.0478    1.2322    6.3081 C   0  0  0  0  0  0  0  0  0  0  0  0
    3.9077    0.1314    6.2106 C   0  0  0  0  0  0  0  0  0  0  0  0
    5.2938    0.2394    6.4206 N   0  0  0  0  0  0  0  0  0  0  0  0
    6.0492    0.1120    5.1460 C   0  0  0  0  0  0  0  0  0  0  0  0
    7.5129    0.5756    5.3230 C   0  0  0  0  0  0  0  0  0  0  0  0
    7.6404    1.9984    5.7188 N   0  0  0  0  0  0  0  0  0  0  0  0
    8.9381    2.2393    6.3431 C   0  0  0  0  0  0  0  0  0  0  0  0
    6.5202    2.4160    6.5919 C   0  0  0  0  0  0  0  0  0  0  0  0
    5.8166    1.2655    7.3449 C   0  0  0  0  0  0  0  0  0  0  0  0
    3.9079   -2.4128    7.8146 H   0  0  0  0  0  0  0  0  0  0  0  0
    5.5638   -2.2865    7.1216 H   0  0  0  0  0  0  0  0  0  0  0  0
    4.6329   -3.7761    6.9517 H   0  0  0  0  0  0  0  0  0  0  0  0
    1.5707   -2.1685    5.2311 H   0  0  0  0  0  0  0  0  0  0  0  0
   -0.7719    0.7438    5.4227 H   0  0  0  0  0  0  0  0  0  0  0  0
   -1.3901   -4.3266    4.4405 H   0  0  0  0  0  0  0  0  0  0  0  0
   -5.3512   -1.8666    4.6834 H   0  0  0  0  0  0  0  0  0  0  0  0
   -3.4558    0.9767    3.2589 H   0  0  0  0  0  0  0  0  0  0  0  0
   -4.3686    3.2451    3.0816 H   0  0  0  0  0  0  0  0  0  0  0  0
   -6.6827    3.7257    3.8358 H   0  0  0  0  0  0  0  0  0  0  0  0
   -8.0711    1.9193    4.7705 H   0  0  0  0  0  0  0  0  0  0  0  0
   -8.8321    0.5807    6.7215 H   0  0  0  0  0  0  0  0  0  0  0  0
   -8.8880   -1.1048    7.2622 H   0  0  0  0  0  0  0  0  0  0  0  0
   -7.4288   -0.1347    7.5421 H   0  0  0  0  0  0  0  0  0  0  0  0
   -8.7578   -1.3665    3.2247 H   0  0  0  0  0  0  0  0  0  0  0  0
   -9.5944   -0.1209    4.1744 H   0  0  0  0  0  0  0  0  0  0  0  0
   -9.7033   -1.8231    4.6555 H   0  0  0  0  0  0  0  0  0  0  0  0
    1.0604    2.0113    6.1178 H   0  0  0  0  0  0  0  0  0  0  0  0
    3.4275    2.2155    6.5663 H   0  0  0  0  0  0  0  0  0  0  0  0
    5.5796    0.7133    4.3553 H   0  0  0  0  0  0  0  0  0  0  0  0
    6.0569   -0.9320    4.8143 H   0  0  0  0  0  0  0  0  0  0  0  0
    7.9835   -0.0753    6.0730 H   0  0  0  0  0  0  0  0  0  0  0  0
    8.0523    0.4256    4.3806 H   0  0  0  0  0  0  0  0  0  0  0  0
    9.0513    1.6945    7.2872 H   0  0  0  0  0  0  0  0  0  0  0  0
    9.0745    3.3078    6.5434 H   0  0  0  0  0  0  0  0  0  0  0  0
    9.7503    1.9403    5.6711 H   0  0  0  0  0  0  0  0  0  0  0  0
    5.7821    2.9101    5.9474 H   0  0  0  0  0  0  0  0  0  0  0  0
    6.8427    3.1797    7.3104 H   0  0  0  0  0  0  0  0  0  0  0  0
    6.5462    0.7766    8.0035 H   0  0  0  0  0  0  0  0  0  0  0  0
    5.0439    1.6604    8.0143 H   0  0  0  0  0  0  0  0  0  0  0  0
   -3.0000   -2.6000    1.2500 Ti  0  0  0  0  0  0  0  0  0  0  0  0
    0.0000   -2.6000    1.2500 Ti  0  0  0  0  0  0  0  0  0  0  0  0
    3.0000   -2.6000    1.2500 Ti  0  0  0  0  0  0  0  0  0  0  0  0
   -1.5000    0.0000    1.2500 Ti  0  0  0  0  0  0  0  0  0  0  0  0
    1.5000    0.0000    1.2500 Ti  0  0  0  0  0  0  0  0  0  0  0  0
    0.0000    2.6000    1.2500 Ti  0  0  0  0  0  0  0  0  0  0  0  0
   -3.0000   -2.6000   -1.2500 Ti  0  0  0  0  0  0  0  0  0  0  0  0
    0.0000   -2.6000   -1.2500 Ti  0  0  0  0  0  0  0  0  0  0  0  0
    3.0000   -2.6000   -1.2500 Ti  0  0  0  0  0  0  0  0  0  0  0  0
   -1.5000    0.0000   -1.2500 Ti  0  0  0  0  0  0  0  0  0  0  0  0
    1.5000    0.0000   -1.2500 Ti  0  0  0  0  0  0  0  0  0  0  0  0
    0.0000    2.6000   -1.2500 Ti  0  0  0  0  0  0  0  0  0  0  0  0
   -1.5000   -1.3000    0.0000 C   0  0  0  0  0  0  0  0  0  0  0  0
    1.5000   -1.3000    0.0000 C   0  0  0  0  0  0  0  0  0  0  0  0
    0.0000    1.3000    0.0000 C   0  0  0  0  0  0  0  0  0  0  0  0
   -3.0000    0.0000    0.0000 C   0  0  0  0  0  0  0  0  0  0  0  0
    3.0000    0.0000    0.0000 C   0  0  0  0  0  0  0  0  0  0  0  0
   -1.5000    2.6000    0.0000 C   0  0  0  0  0  0  0  0  0  0  0  0
    1.5000    2.6000    0.0000 C   0  0  0  0  0  0  0  0  0  0  0  0
   -3.0000   -2.6000    2.4500 O   0  0  0  0  0  0  0  0  0  0  0  0
    0.0000   -2.6000    2.4500 O   0  0  0  0  0  0  0  0  0  0  0  0
    3.0000   -2.6000    2.4500 O   0  0  0  0  0  0  0  0  0  0  0  0
   -1.5000    0.0000    2.4500 O   0  0  0  0  0  0  0  0  0  0  0  0
    1.5000    0.0000    2.4500 O   0  0  0  0  0  0  0  0  0  0  0  0
   -1.5000    2.6000    2.4500 O   0  0  0  0  0  0  0  0  0  0  0  0
    1.5000    2.6000    2.4500 O   0  0  0  0  0  0  0  0  0  0  0  0
   -3.0000   -2.6000   -2.4500 O   0  0  0  0  0  0  0  0  0  0  0  0
    0.0000   -2.6000   -2.4500 O   0  0  0  0  0  0  0  0  0  0  0  0
    3.0000   -2.6000   -2.4500 O   0  0  0  0  0  0  0  0  0  0  0  0
   -1.5000    0.0000   -2.4500 O   0  0  0  0  0  0  0  0  0  0  0  0
    1.5000    0.0000   -2.4500 O   0  0  0  0  0  0  0  0  0  0  0  0
   -1.5000    2.6000   -2.4500 O   0  0  0  0  0  0  0  0  0  0  0  0
    1.5000    2.6000   -2.4500 O   0  0  0  0  0  0  0  0  0  0  0  0
  1  2  1  0  0  0  0
  2  3  1  0  0  0  0
  3  4  4  0  0  0  0
  4  5  4  0  0  0  0
  5  6  1  0  0  0  0
  6  7  1  0  0  0  0
  7  8  4  0  0  0  0
  8  9  4  0  0  0  0
  9 10  4  0  0  0  0
 10 11  1  0  0  0  0
 10 12  1  0  0  0  0
 12 13  1  0  0  0  0
 13 14  1  0  0  0  0
 14 15  4  0  0  0  0
 15 16  4  0  0  0  0
 16 17  4  0  0  0  0
 17 18  4  0  0  0  0
 14 19  4  0  0  0  0
 18 19  4  0  0  0  0
 19 20  1  0  0  0  0
 20 21  2  0  0  0  0
 20 22  1  0  0  0  0
 20 23  1  0  0  0  0
  7 24  4  0  0  0  0
 12 24  4  0  0  0  0
  5 25  4  0  0  0  0
 25 26  4  0  0  0  0
  3 27  4  0  0  0  0
 26 27  4  0  0  0  0
 27 28  1  0  0  0  0
 28 29  1  0  0  0  0
 29 30  1  0  0  0  0
 30 31  1  0  0  0  0
 31 32  1  0  0  0  0
 31 33  1  0  0  0  0
 28 34  1  0  0  0  0
 33 34  1  0  0  0  0
  1 35  1  0  0  0  0
  1 36  1  0  0  0  0
  1 37  1  0  0  0  0
  4 38  1  0  0  0  0
  6 39  1  0  0  0  0
  9 40  1  0  0  0  0
 13 41  1  0  0  0  0
 15 42  1  0  0  0  0
 16 43  1  0  0  0  0
 17 44  1  0  0  0  0
 18 45  1  0  0  0  0
 22 46  1  0  0  0  0
 22 47  1  0  0  0  0
 22 48  1  0  0  0  0
 23 49  1  0  0  0  0
 23 50  1  0  0  0  0
 23 51  1  0  0  0  0
 25 52  1  0  0  0  0
 26 53  1  0  0  0  0
 29 54  1  0  0  0  0
 29 55  1  0  0  0  0
 30 56  1  0  0  0  0
 30 57  1  0  0  0  0
 32 58  1  0  0  0  0
 32 59  1  0  0  0  0
 32 60  1  0  0  0  0
 33 61  1  0  0  0  0
 33 62  1  0  0  0  0
 34 63  1  0  0  0  0
 34 64  1  0  0  0  0
 65 66  1  0  0  0  0
 66 67  1  0  0  0  0
 65 71  1  0  0  0  0
 66 72  1  0  0  0  0
 71 72  1  0  0  0  0
 67 73  1  0  0  0  0
 72 73  1  0  0  0  0
 68 77  1  0  0  0  0
 71 77  1  0  0  0  0
 74 77  1  0  0  0  0
 69 78  1  0  0  0  0
 75 78  1  0  0  0  0
 70 79  1  0  0  0  0
 76 79  1  0  0  0  0
 68 80  1  0  0  0  0
 74 80  1  0  0  0  0
 77 80  1  0  0  0  0
 69 81  1  0  0  0  0
 75 81  1  0  0  0  0
 78 81  1  0  0  0  0
 70 82  1  0  0  0  0
 76 82  1  0  0  0  0
 79 82  1  0  0  0  0
 70 83  1  0  0  0  0
 76 83  1  0  0  0  0
 79 83  1  0  0  0  0
 65 84  2  0  0  0  0
 66 85  2  0  0  0  0
 67 86  2  0  0  0  0
 68 87  2  0  0  0  0
 69 88  2  0  0  0  0
 70 89  1  0  0  0  0
 82 89  1  0  0  0  0
 70 90  1  0  0  0  0
 83 90  1  0  0  0  0
 71 91  2  0  0  0  0
 72 92  2  0  0  0  0
 73 93  2  0  0  0  0
 74 94  2  0  0  0  0
 75 95  2  0  0  0  0
 76 96  1  0  0  0  0
 82 96  1  0  0  0  0
 76 97  1  0  0  0  0
 83 97  1  0  0  0  0
M  END
