 xtb: 6.7.1pre (5071a88)
          08312620393D

 98111  0     0  0            999 V2000
   -9.4168   -1.7673    4.0577 C   0  0  0  0  0  0  0  0  0  0  0  0
   -9.3664   -0.2422    4.0382 C   0  0  0  0  0  0  0  0  0  0  0  0
   -8.2033    0.3965    4.6599 N   0  0  0  0  0  0  0  0  0  0  0  0
   -6.9310    0.0692    3.9951 C   0  0  0  0  0  0  0  0  0  0  0  0
   -5.7425    0.8350    4.6238 C   0  0  0  0  0  0  0  0  0  0  0  0
   -5.6174    0.5840    6.0780 N   0  0  0  0  0  0  0  0  0  0  0  0
   -4.5344    1.3834    6.6728 C   0  0  0  0  0  0  0  0  0  0  0  0
   -3.1585    0.9355    6.2501 C   0  0  0  0  0  0  0  0  0  0  0  0
   -2.7419   -0.3888    6.3747 C   0  0  0  0  0  0  0  0  0  0  0  0
   -1.4539   -0.7473    5.9793 C   0  0  0  0  0  0  0  0  0  0  0  0
   -0.5891    0.2229    5.4718 C   0  0  0  0  0  0  0  0  0  0  0  0
    0.6996   -0.1863    5.0901 N   0  0  0  0  0  0  0  0  0  0  0  0
    1.6506    0.5891    4.4314 C   0  0  0  0  0  0  0  0  0  0  0  0
    1.3081    1.3922    3.4117 N   0  0  0  0  0  0  0  0  0  0  0  0
    2.2964    2.0751    2.8084 C   0  0  0  0  0  0  0  0  0  0  0  0
    3.6111    1.9610    3.1718 C   0  0  0  0  0  0  0  0  0  0  0  0
    4.5681    2.6496    2.5346 F   0  0  0  0  0  0  0  0  0  0  0  0
    3.9027    1.0905    4.2084 C   0  0  0  0  0  0  0  0  0  0  0  0
    5.2471    0.9747    4.6207 N   0  0  0  0  0  0  0  0  0  0  0  0
    5.7974    0.2074    5.6437 C   0  0  0  0  0  0  0  0  0  0  0  0
    5.1533   -0.0301    6.8488 C   0  0  0  0  0  0  0  0  0  0  0  0
    5.7951   -0.7826    7.8305 C   0  0  0  0  0  0  0  0  0  0  0  0
    7.0758   -1.2826    7.5936 C   0  0  0  0  0  0  0  0  0  0  0  0
    7.7302   -2.0395    8.6167 C   0  0  0  0  0  0  0  0  0  0  0  0
    8.2572   -2.6525    9.4494 N   0  0  0  0  0  0  0  0  0  0  0  0
    7.6733   -1.0072    6.3622 C   0  0  0  0  0  0  0  0  0  0  0  0
    9.0805   -1.4735    6.0187 C   0  0  0  0  0  0  0  0  0  0  0  0
   10.0835   -0.3482    6.2760 C   0  0  0  0  0  0  0  0  0  0  0  0
    9.1813   -1.9608    4.5691 C   0  0  0  0  0  0  0  0  0  0  0  0
    7.0455   -0.2558    5.4125 N   0  0  0  0  0  0  0  0  0  0  0  0
    2.9224    0.4068    4.8386 N   0  0  0  0  0  0  0  0  0  0  0  0
   -0.9763    1.5098    5.3627 N   0  0  0  0  0  0  0  0  0  0  0  0
   -2.2333    1.8370    5.7433 C   0  0  0  0  0  0  0  0  0  0  0  0
   -6.9053    0.9024    6.7308 C   0  0  0  0  0  0  0  0  0  0  0  0
   -8.0911    0.1331    6.1030 C   0  0  0  0  0  0  0  0  0  0  0  0
  -10.3323   -2.1108    3.5640 H   0  0  0  0  0  0  0  0  0  0  0  0
   -9.4295   -2.1616    5.0779 H   0  0  0  0  0  0  0  0  0  0  0  0
   -8.5722   -2.2099    3.5219 H   0  0  0  0  0  0  0  0  0  0  0  0
   -9.4335    0.0943    2.9959 H   0  0  0  0  0  0  0  0  0  0  0  0
  -10.2741    0.1413    4.5212 H   0  0  0  0  0  0  0  0  0  0  0  0
   -6.9889    0.3398    2.9341 H   0  0  0  0  0  0  0  0  0  0  0  0
   -6.7212   -1.0063    4.0505 H   0  0  0  0  0  0  0  0  0  0  0  0
   -4.8311    0.5137    4.1065 H   0  0  0  0  0  0  0  0  0  0  0  0
   -5.8678    1.9089    4.4290 H   0  0  0  0  0  0  0  0  0  0  0  0
   -4.5648    1.2894    7.7668 H   0  0  0  0  0  0  0  0  0  0  0  0
   -4.6764    2.4497    6.4514 H   0  0  0  0  0  0  0  0  0  0  0  0
   -3.4222   -1.1435    6.7616 H   0  0  0  0  0  0  0  0  0  0  0  0
   -1.1377   -1.7826    6.0545 H   0  0  0  0  0  0  0  0  0  0  0  0
    1.1743   -0.6720    5.8369 H   0  0  0  0  0  0  0  0  0  0  0  0
    1.9928    2.7310    2.0006 H   0  0  0  0  0  0  0  0  0  0  0  0
    5.8955    0.9776    3.8397 H   0  0  0  0  0  0  0  0  0  0  0  0
    4.1670    0.3777    7.0428 H   0  0  0  0  0  0  0  0  0  0  0  0
    5.2916   -0.9637    8.7778 H   0  0  0  0  0  0  0  0  0  0  0  0
    9.3524   -2.3292    6.6472 H   0  0  0  0  0  0  0  0  0  0  0  0
   10.0514   -0.0230    7.3218 H   0  0  0  0  0  0  0  0  0  0  0  0
    9.8761    0.5272    5.6501 H   0  0  0  0  0  0  0  0  0  0  0  0
   11.1043   -0.6819    6.0609 H   0  0  0  0  0  0  0  0  0  0  0  0
    8.4520   -2.7545    4.3719 H   0  0  0  0  0  0  0  0  0  0  0  0
    9.0004   -1.1528    3.8513 H   0  0  0  0  0  0  0  0  0  0  0  0
   10.1796   -2.3647    4.3682 H   0  0  0  0  0  0  0  0  0  0  0  0
   -2.4767    2.8888    5.6186 H   0  0  0  0  0  0  0  0  0  0  0  0
   -6.8512    0.6337    7.7928 H   0  0  0  0  0  0  0  0  0  0  0  0
   -7.1084    1.9807    6.6761 H   0  0  0  0  0  0  0  0  0  0  0  0
   -9.0107    0.4501    6.6092 H   0  0  0  0  0  0  0  0  0  0  0  0
   -7.9574   -0.9376    6.3013 H   0  0  0  0  0  0  0  0  0  0  0  0
   -3.0000   -2.6000    1.2500 Ti  0  0  0  0  0  0  0  0  0  0  0  0
    0.0000   -2.6000    1.2500 Ti  0  0  0  0  0  0  0  0  0  0  0  0
    3.0000   -2.6000    1.2500 Ti  0  0  0  0  0  0  0  0  0  0  0  0
   -1.5000    0.0000    1.2500 Ti  0  0  0  0  0  0  0  0  0  0  0  0
    1.5000    0.0000    1.2500 Ti  0  0  0  0  0  0  0  0  0  0  0  0
    0.0000    2.6000    1.2500 Ti  0  0  0  0  0  0  0  0  0  0  0  0
   -3.0000   -2.6000   -1.2500 Ti  0  0  0  0  0  0  0  0  0  0  0  0
    0.0000   -2.6000   -1.2500 Ti  0  0  0  0  0  0  0  0  0  0  0  0
    3.0000   -2.6000   -1.2500 Ti  0  0  0  0  0  0  0  0  0  0  0  0
   -1.5000    0.0000   -1.2500 Ti  0  0  0  0  0  0  0  0  0  0  0  0
    1.5000    0.0000   -1.2500 Ti  0  0  0  0  0  0  0  0  0  0  0  0
    0.0000    2.6000   -1.2500 Ti  0  0  0  0  0  0  0  0  0  0  0  0
   -1.5000   -1.3000    0.0000 C   0  0  0  0  0  0  0  0  0  0  0  0
    1.5000   -1.3000    0.0000 C   0  0  0  0  0  0  0  0  0  0  0  0
    0.0000    1.3000    0.0000 C   0  0  0  0  0  0  0  0  0  0  0  0
   -3.0000    0.0000    0.0000 C   0  0  0  0  0  0  0  0  0  0  0  0
    3.0000    0.0000    0.0000 C   0  0  0  0  0  0  0  0  0  0  0  0
   -1.5000    2.6000    0.0000 C   0  0  0  0  0  0  0  0  0  0  0  0
    1.5000    2.6000    0.0000 C   0  0  0  0  0  0  0  0  0  0  0  0
   -3.0000   -2.6000    2.4500 O   0  0  0  0  0  0  0  0  0  0  0  0
    0.0000   -2.6000    2.4500 O   0  0  0  0  0  0  0  0  0  0  0  0
    3.0000   -2.6000    2.4500 O   0  0  0  0  0  0  0  0  0  0  0  0
   -1.5000    0.0000    2.4500 O   0  0  0  0  0  0  0  0  0  0  0  0
    1.5000    0.0000    2.4500 O   0  0  0  0  0  0  0  0  0  0  0  0
   -1.5000    2.6000    2.4500 O   0  0  0  0  0  0  0  0  0  0  0  0
    1.5000    2.6000    2.4500 O   0  0  0  0  0  0  0  0  0  0  0  0
   -3.0000   -2.6000   -2.4500 O   0  0  0  0  0  0  0  0  0  0  0  0
    0.0000   -2.6000   -2.4500 O   0  0  0  0  0  0  0  0  0  0  0  0
    3.0000   -2.6000   -2.4500 O   0  0  0  0  0  0  0  0  0  0  0  0
   -1.5000    0.0000   -2.4500 O   0  0  0  0  0  0  0  0  0  0  0  0
    1.5000    0.0000   -2.4500 O   0  0  0  0  0  0  0  0  0  0  0  0
   -1.5000    2.6000   -2.4500 O   0  0  0  0  0  0  0  0  0  0  0  0
    1.5000    2.6000   -2.4500 O   0  0  0  0  0  0  0  0  0  0  0  0
  1  2  1  0  0  0  0
  2  3  1  0  0  0  0
  3  4  1  0  0  0  0
  4  5  1  0  0  0  0
  5  6  1  0  0  0  0
  6  7  1  0  0  0  0
  7  8  1  0  0  0  0
  8  9  4  0  0  0  0
  9 10  4  0  0  0  0
 10 11  4  0  0  0  0
 11 12  1  0  0  0  0
 12 13  1  0  0  0  0
 13 14  1  0  0  0  0
 14 15  1  0  0  0  0
 15 16  4  0  0  0  0
 16 17  1  0  0  0  0
 16 18  4  0  0  0  0
 18 19  1  0  0  0  0
 19 20  1  0  0  0  0
 20 21  4  0  0  0  0
 21 22  4  0  0  0  0
 22 23  4  0  0  0  0
 23 24  1  0  0  0  0
 24 25  3  0  0  0  0
 23 26  4  0  0  0  0
 26 27  1  0  0  0  0
 27 28  1  0  0  0  0
 27 29  1  0  0  0  0
 20 30  4  0  0  0  0
 26 30  4  0  0  0  0
 13 31  4  0  0  0  0
 18 31  4  0  0  0  0
 11 32  4  0  0  0  0
  8 33  4  0  0  0  0
 32 33  4  0  0  0  0
  6 34  1  0  0  0  0
  3 35  1  0  0  0  0
 34 35  1  0  0  0  0
  1 36  1  0  0  0  0
  1 37  1  0  0  0  0
  1 38  1  0  0  0  0
  2 39  1  0  0  0  0
  2 40  1  0  0  0  0
  4 41  1  0  0  0  0
  4 42  1  0  0  0  0
  5 43  1  0  0  0  0
  5 44  1  0  0  0  0
  7 45  1  0  0  0  0
  7 46  1  0  0  0  0
  9 47  1  0  0  0  0
 10 48  1  0  0  0  0
 12 49  1  0  0  0  0
 19 51  1  0  0  0  0
 21 52  1  0  0  0  0
 22 53  1  0  0  0  0
 27 54  1  0  0  0  0
 28 55  1  0  0  0  0
 28 56  1  0  0  0  0
 28 57  1  0  0  0  0
 29 58  1  0  0  0  0
 29 59  1  0  0  0  0
 29 60  1  0  0  0  0
 33 61  1  0  0  0  0
 34 62  1  0  0  0  0
 34 63  1  0  0  0  0
 35 64  1  0  0  0  0
 35 65  1  0  0  0  0
 66 67  1  0  0  0  0
 67 68  1  0  0  0  0
 66 72  1  0  0  0  0
 67 73  1  0  0  0  0
 72 73  1  0  0  0  0
 68 74  1  0  0  0  0
 73 74  1  0  0  0  0
 71 77  1  0  0  0  0
 69 78  1  0  0  0  0
 75 78  1  0  0  0  0
 70 79  1  0  0  0  0
 76 79  1  0  0  0  0
 71 80  1  0  0  0  0
 77 80  1  0  0  0  0
 69 81  1  0  0  0  0
 75 81  1  0  0  0  0
 78 81  1  0  0  0  0
 70 82  1  0  0  0  0
 76 82  1  0  0  0  0
 79 82  1  0  0  0  0
 71 83  1  0  0  0  0
 77 83  1  0  0  0  0
 80 83  1  0  0  0  0
 71 84  1  0  0  0  0
 77 84  1  0  0  0  0
 80 84  1  0  0  0  0
 66 85  2  0  0  0  0
 67 86  2  0  0  0  0
 68 87  2  0  0  0  0
 69 88  2  0  0  0  0
 70 89  2  0  0  0  0
 71 90  1  0  0  0  0
 83 90  1  0  0  0  0
 15 91  1  0  0  0  0
 50 91  1  0  0  0  0
 72 92  2  0  0  0  0
 73 93  2  0  0  0  0
 74 94  2  0  0  0  0
 75 95  2  0  0  0  0
 76 96  2  0  0  0  0
 77 97  1  0  0  0  0
 83 97  1  0  0  0  0
 77 98  1  0  0  0  0
 84 98  1  0  0  0  0
M  END
