 xtb: 6.7.1pre (5071a88)
          08312621193D

 98109  0     0  0            999 V2000
   -9.4168   -1.7673    9.2384 C   0  0  0  0  0  0  0  0  0  0  0  0
   -9.3664   -0.2422    9.2189 C   0  0  0  0  0  0  0  0  0  0  0  0
   -8.2033    0.3965    9.8405 N   0  0  0  0  0  0  0  0  0  0  0  0
   -6.9310    0.0692    9.1757 C   0  0  0  0  0  0  0  0  0  0  0  0
   -5.7425    0.8350    9.8044 C   0  0  0  0  0  0  0  0  0  0  0  0
   -5.6174    0.5840   11.2587 N   0  0  0  0  0  0  0  0  0  0  0  0
   -4.5344    1.3834   11.8534 C   0  0  0  0  0  0  0  0  0  0  0  0
   -3.1585    0.9355   11.4307 C   0  0  0  0  0  0  0  0  0  0  0  0
   -2.7419   -0.3888   11.5553 C   0  0  0  0  0  0  0  0  0  0  0  0
   -1.4539   -0.7473   11.1599 C   0  0  0  0  0  0  0  0  0  0  0  0
   -0.5891    0.2229   10.6524 C   0  0  0  0  0  0  0  0  0  0  0  0
    0.6996   -0.1863   10.2707 N   0  0  0  0  0  0  0  0  0  0  0  0
    1.6506    0.5891    9.6120 C   0  0  0  0  0  0  0  0  0  0  0  0
    1.3081    1.3922    8.5923 N   0  0  0  0  0  0  0  0  0  0  0  0
    2.2964    2.0751    7.9890 C   0  0  0  0  0  0  0  0  0  0  0  0
    3.6111    1.9610    8.3524 C   0  0  0  0  0  0  0  0  0  0  0  0
    4.5681    2.6496    7.7152 F   0  0  0  0  0  0  0  0  0  0  0  0
    3.9027    1.0905    9.3890 C   0  0  0  0  0  0  0  0  0  0  0  0
    5.2471    0.9747    9.8014 N   0  0  0  0  0  0  0  0  0  0  0  0
    5.7974    0.2074   10.8244 C   0  0  0  0  0  0  0  0  0  0  0  0
    5.1533   -0.0301   12.0294 C   0  0  0  0  0  0  0  0  0  0  0  0
    5.7951   -0.7826   13.0111 C   0  0  0  0  0  0  0  0  0  0  0  0
    7.0758   -1.2826   12.7742 C   0  0  0  0  0  0  0  0  0  0  0  0
    7.7302   -2.0395   13.7973 C   0  0  0  0  0  0  0  0  0  0  0  0
    8.2572   -2.6525   14.6300 N   0  0  0  0  0  0  0  0  0  0  0  0
    7.6733   -1.0072   11.5428 C   0  0  0  0  0  0  0  0  0  0  0  0
    9.0805   -1.4735   11.1993 C   0  0  0  0  0  0  0  0  0  0  0  0
   10.0835   -0.3482   11.4566 C   0  0  0  0  0  0  0  0  0  0  0  0
    9.1813   -1.9608    9.7497 C   0  0  0  0  0  0  0  0  0  0  0  0
    7.0455   -0.2558   10.5931 N   0  0  0  0  0  0  0  0  0  0  0  0
    2.9224    0.4068   10.0192 N   0  0  0  0  0  0  0  0  0  0  0  0
   -0.9763    1.5098   10.5433 N   0  0  0  0  0  0  0  0  0  0  0  0
   -2.2333    1.8370   10.9239 C   0  0  0  0  0  0  0  0  0  0  0  0
   -6.9053    0.9024   11.9114 C   0  0  0  0  0  0  0  0  0  0  0  0
   -8.0911    0.1331   11.2837 C   0  0  0  0  0  0  0  0  0  0  0  0
  -10.3323   -2.1108    8.7446 H   0  0  0  0  0  0  0  0  0  0  0  0
   -9.4295   -2.1616   10.2585 H   0  0  0  0  0  0  0  0  0  0  0  0
   -8.5722   -2.2099    8.7025 H   0  0  0  0  0  0  0  0  0  0  0  0
   -9.4335    0.0943    8.1765 H   0  0  0  0  0  0  0  0  0  0  0  0
  -10.2741    0.1413    9.7018 H   0  0  0  0  0  0  0  0  0  0  0  0
   -6.9889    0.3398    8.1147 H   0  0  0  0  0  0  0  0  0  0  0  0
   -6.7212   -1.0063    9.2311 H   0  0  0  0  0  0  0  0  0  0  0  0
   -4.8311    0.5137    9.2871 H   0  0  0  0  0  0  0  0  0  0  0  0
   -5.8678    1.9089    9.6096 H   0  0  0  0  0  0  0  0  0  0  0  0
   -4.5648    1.2894   12.9474 H   0  0  0  0  0  0  0  0  0  0  0  0
   -4.6764    2.4497   11.6321 H   0  0  0  0  0  0  0  0  0  0  0  0
   -3.4222   -1.1435   11.9423 H   0  0  0  0  0  0  0  0  0  0  0  0
   -1.1377   -1.7826   11.2351 H   0  0  0  0  0  0  0  0  0  0  0  0
    1.1743   -0.6720   11.0175 H   0  0  0  0  0  0  0  0  0  0  0  0
    1.9928    2.7310    7.1812 H   0  0  0  0  0  0  0  0  0  0  0  0
    5.8955    0.9776    9.0203 H   0  0  0  0  0  0  0  0  0  0  0  0
    4.1670    0.3777   12.2235 H   0  0  0  0  0  0  0  0  0  0  0  0
    5.2916   -0.9637   13.9584 H   0  0  0  0  0  0  0  0  0  0  0  0
    9.3524   -2.3292   11.8278 H   0  0  0  0  0  0  0  0  0  0  0  0
   10.0514   -0.0230   12.5024 H   0  0  0  0  0  0  0  0  0  0  0  0
    9.8761    0.5272   10.8307 H   0  0  0  0  0  0  0  0  0  0  0  0
   11.1043   -0.6819   11.2416 H   0  0  0  0  0  0  0  0  0  0  0  0
    8.4520   -2.7545    9.5525 H   0  0  0  0  0  0  0  0  0  0  0  0
    9.0004   -1.1528    9.0320 H   0  0  0  0  0  0  0  0  0  0  0  0
   10.1796   -2.3647    9.5488 H   0  0  0  0  0  0  0  0  0  0  0  0
   -2.4767    2.8888   10.7992 H   0  0  0  0  0  0  0  0  0  0  0  0
   -6.8512    0.6337   12.9735 H   0  0  0  0  0  0  0  0  0  0  0  0
   -7.1084    1.9807   11.8567 H   0  0  0  0  0  0  0  0  0  0  0  0
   -9.0107    0.4501   11.7898 H   0  0  0  0  0  0  0  0  0  0  0  0
   -7.9574   -0.9376   11.4819 H   0  0  0  0  0  0  0  0  0  0  0  0
   -2.1419   -3.0088    2.1197 Ti  0  0  0  0  0  0  0  0  0  0  0  0
    0.2890   -1.6948    1.4324 Ti  0  0  0  0  0  0  0  0  0  0  0  0
    1.9031   -3.0677   -0.7293 Ti  0  0  0  0  0  0  0  0  0  0  0  0
   -2.5215   -0.2519    1.3037 Ti  0  0  0  0  0  0  0  0  0  0  0  0
    2.1420    0.4995    2.2044 Ti  0  0  0  0  0  0  0  0  0  0  0  0
   -0.6814    0.1896    3.6812 Ti  0  0  0  0  0  0  0  0  0  0  0  0
   -2.0368   -3.0777   -1.2005 Ti  0  0  0  0  0  0  0  0  0  0  0  0
   -0.6053   -0.7709   -2.0351 Ti  0  0  0  0  0  0  0  0  0  0  0  0
    1.9455   -1.5873   -3.4124 Ti  0  0  0  0  0  0  0  0  0  0  0  0
   -1.8782    1.7466   -1.2400 Ti  0  0  0  0  0  0  0  0  0  0  0  0
    2.4125    0.4542   -0.7742 Ti  0  0  0  0  0  0  0  0  0  0  0  0
    0.8177    1.8385   -2.9400 Ti  0  0  0  0  0  0  0  0  0  0  0  0
   -3.6784    1.2814    0.6007 C   0  0  0  0  0  0  0  0  0  0  0  0
    4.1282    0.4828    0.3873 C   0  0  0  0  0  0  0  0  0  0  0  0
    0.4555    2.2672    0.3497 C   0  0  0  0  0  0  0  0  0  0  0  0
   -3.6667    2.1188   -0.3139 C   0  0  0  0  0  0  0  0  0  0  0  0
    4.1160    0.6322    1.6214 C   0  0  0  0  0  0  0  0  0  0  0  0
   -0.6352    2.7410   -0.1189 C   0  0  0  0  0  0  0  0  0  0  0  0
    1.6301    1.7810    0.7342 C   0  0  0  0  0  0  0  0  0  0  0  0
   -3.0935   -1.9569    1.0379 O   0  0  0  0  0  0  0  0  0  0  0  0
   -0.4872   -2.6058    2.7012 O   0  0  0  0  0  0  0  0  0  0  0  0
    0.3141   -2.8889    0.1450 O   0  0  0  0  0  0  0  0  0  0  0  0
   -0.8008   -0.4359    0.9712 O   0  0  0  0  0  0  0  0  0  0  0  0
    1.9029   -1.1583    1.4694 O   0  0  0  0  0  0  0  0  0  0  0  0
   -2.3227   -0.1139    3.0248 O   0  0  0  0  0  0  0  0  0  0  0  0
    1.0138    0.4416    3.5688 O   0  0  0  0  0  0  0  0  0  0  0  0
   -1.7720   -4.5879   -1.6528 O   0  0  0  0  0  0  0  0  0  0  0  0
    0.1906   -1.1892   -3.5340 O   0  0  0  0  0  0  0  0  0  0  0  0
    2.8314   -2.1702   -1.9180 O   0  0  0  0  0  0  0  0  0  0  0  0
   -2.0546   -0.2244   -1.3375 O   0  0  0  0  0  0  0  0  0  0  0  0
    0.7685   -0.3906   -1.0637 O   0  0  0  0  0  0  0  0  0  0  0  0
   -0.9000    1.6493   -2.8186 O   0  0  0  0  0  0  0  0  0  0  0  0
    2.4153    1.3575   -2.2641 O   0  0  0  0  0  0  0  0  0  0  0  0
  1  2  1  0  0  0  0
  2  3  1  0  0  0  0
  3  4  1  0  0  0  0
  4  5  1  0  0  0  0
  5  6  1  0  0  0  0
  6  7  1  0  0  0  0
  7  8  1  0  0  0  0
  8  9  4  0  0  0  0
  9 10  4  0  0  0  0
 10 11  4  0  0  0  0
 11 12  1  0  0  0  0
 12 13  1  0  0  0  0
 13 14  4  0  0  0  0
 14 15  4  0  0  0  0
 15 16  4  0  0  0  0
 16 17  1  0  0  0  0
 16 18  4  0  0  0  0
 18 19  1  0  0  0  0
 19 20  1  0  0  0  0
 20 21  4  0  0  0  0
 21 22  4  0  0  0  0
 22 23  4  0  0  0  0
 23 24  1  0  0  0  0
 24 25  3  0  0  0  0
 23 26  4  0  0  0  0
 26 27  1  0  0  0  0
 27 28  1  0  0  0  0
 27 29  1  0  0  0  0
 20 30  4  0  0  0  0
 26 30  4  0  0  0  0
 13 31  4  0  0  0  0
 18 31  4  0  0  0  0
 11 32  4  0  0  0  0
  8 33  4  0  0  0  0
 32 33  4  0  0  0  0
  6 34  1  0  0  0  0
  3 35  1  0  0  0  0
 34 35  1  0  0  0  0
  1 36  1  0  0  0  0
  1 37  1  0  0  0  0
  1 38  1  0  0  0  0
  2 39  1  0  0  0  0
  2 40  1  0  0  0  0
  4 41  1  0  0  0  0
  4 42  1  0  0  0  0
  5 43  1  0  0  0  0
  5 44  1  0  0  0  0
  7 45  1  0  0  0  0
  7 46  1  0  0  0  0
  9 47  1  0  0  0  0
 10 48  1  0  0  0  0
 12 49  1  0  0  0  0
 15 50  1  0  0  0  0
 19 51  1  0  0  0  0
 21 52  1  0  0  0  0
 22 53  1  0  0  0  0
 27 54  1  0  0  0  0
 28 55  1  0  0  0  0
 28 56  1  0  0  0  0
 28 57  1  0  0  0  0
 29 58  1  0  0  0  0
 29 59  1  0  0  0  0
 29 60  1  0  0  0  0
 33 61  1  0  0  0  0
 34 62  1  0  0  0  0
 34 63  1  0  0  0  0
 35 64  1  0  0  0  0
 35 65  1  0  0  0  0
 66 72  1  0  0  0  0
 72 73  1  0  0  0  0
 68 74  1  0  0  0  0
 69 78  1  0  0  0  0
 76 79  1  0  0  0  0
 75 81  1  0  0  0  0
 78 81  3  0  0  0  0
 70 82  1  0  0  0  0
 79 82  3  0  0  0  0
 75 83  1  0  0  0  0
 80 83  2  0  0  0  0
 70 84  1  0  0  0  0
 76 84  1  0  0  0  0
 80 84  2  0  0  0  0
 66 85  1  0  0  0  0
 69 85  1  0  0  0  0
 66 86  1  0  0  0  0
 67 86  1  0  0  0  0
 67 87  1  0  0  0  0
 68 87  1  0  0  0  0
 67 88  1  0  0  0  0
 69 88  1  0  0  0  0
 67 89  1  0  0  0  0
 70 89  1  0  0  0  0
 69 90  1  0  0  0  0
 71 90  1  0  0  0  0
 70 91  1  0  0  0  0
 71 91  1  0  0  0  0
 72 92  2  0  0  0  0
 73 93  1  0  0  0  0
 74 93  1  0  0  0  0
 68 94  1  0  0  0  0
 74 94  1  0  0  0  0
 73 95  1  0  0  0  0
 75 95  1  0  0  0  0
 73 96  1  0  0  0  0
 76 96  1  0  0  0  0
 75 97  1  0  0  0  0
 77 97  1  0  0  0  0
 76 98  1  0  0  0  0
 77 98  1  0  0  0  0
M  END
