 xtb: 6.7.1pre (5071a88)
          08312621563D

 98109  0     0  0            999 V2000
   10.3519   -0.7933    9.1911 C   0  0  0  0  0  0  0  0  0  0  0  0
    8.9315   -1.0954    9.6585 C   0  0  0  0  0  0  0  0  0  0  0  0
    8.1655    0.1218    9.9716 N   0  0  0  0  0  0  0  0  0  0  0  0
    6.9215   -0.2134   10.6999 C   0  0  0  0  0  0  0  0  0  0  0  0
    5.7973   -0.8173    9.8227 C   0  0  0  0  0  0  0  0  0  0  0  0
    5.4511   -0.0267    8.6205 N   0  0  0  0  0  0  0  0  0  0  0  0
    4.6865    1.1903    8.9472 C   0  0  0  0  0  0  0  0  0  0  0  0
    3.2891    0.9070    9.4382 C   0  0  0  0  0  0  0  0  0  0  0  0
    2.4068    0.0936    8.7307 C   0  0  0  0  0  0  0  0  0  0  0  0
    1.1156   -0.1212    9.2160 C   0  0  0  0  0  0  0  0  0  0  0  0
    0.7144    0.4845   10.3998 C   0  0  0  0  0  0  0  0  0  0  0  0
   -0.5372    0.3390   10.9679 N   0  0  0  0  0  0  0  0  0  0  0  0
   -1.6879   -0.3504   10.6352 C   0  0  0  0  0  0  0  0  0  0  0  0
   -1.7599   -1.1062    9.5285 N   0  0  0  0  0  0  0  0  0  0  0  0
   -2.9218   -1.7500    9.2972 C   0  0  0  0  0  0  0  0  0  0  0  0
   -4.0129   -1.6589   10.1189 C   0  0  0  0  0  0  0  0  0  0  0  0
   -5.1151   -2.3762    9.8637 F   0  0  0  0  0  0  0  0  0  0  0  0
   -3.8759   -0.8420   11.2248 C   0  0  0  0  0  0  0  0  0  0  0  0
   -4.8999   -0.6546   12.1681 N   0  0  0  0  0  0  0  0  0  0  0  0
   -6.2414   -0.3506   11.8660 C   0  0  0  0  0  0  0  0  0  0  0  0
   -7.1578   -0.3070   12.9106 C   0  0  0  0  0  0  0  0  0  0  0  0
   -8.4917   -0.0096   12.6387 C   0  0  0  0  0  0  0  0  0  0  0  0
   -8.8928    0.2344   11.3242 C   0  0  0  0  0  0  0  0  0  0  0  0
  -10.2626    0.5528   11.0592 C   0  0  0  0  0  0  0  0  0  0  0  0
  -11.3743    0.8138   10.8523 N   0  0  0  0  0  0  0  0  0  0  0  0
   -7.9290    0.1635   10.3171 C   0  0  0  0  0  0  0  0  0  0  0  0
   -8.2541    0.4359    8.8561 C   0  0  0  0  0  0  0  0  0  0  0  0
   -7.5179   -0.5282    7.9188 C   0  0  0  0  0  0  0  0  0  0  0  0
   -7.9152    1.8851    8.5048 C   0  0  0  0  0  0  0  0  0  0  0  0
   -6.6229   -0.1082   10.5949 N   0  0  0  0  0  0  0  0  0  0  0  0
   -2.7121   -0.2093   11.4987 N   0  0  0  0  0  0  0  0  0  0  0  0
    1.5580    1.2844   11.0928 N   0  0  0  0  0  0  0  0  0  0  0  0
    2.8065    1.4791   10.6054 C   0  0  0  0  0  0  0  0  0  0  0  0
    6.6945    0.3098    7.8947 C   0  0  0  0  0  0  0  0  0  0  0  0
    7.8188    0.9131    8.7726 C   0  0  0  0  0  0  0  0  0  0  0  0
   10.3687   -0.3242    8.2032 H   0  0  0  0  0  0  0  0  0  0  0  0
   10.9253   -1.7237    9.1202 H   0  0  0  0  0  0  0  0  0  0  0  0
   10.8693   -0.1359    9.8978 H   0  0  0  0  0  0  0  0  0  0  0  0
    9.0272   -1.6994   10.5699 H   0  0  0  0  0  0  0  0  0  0  0  0
    8.4283   -1.7254    8.9167 H   0  0  0  0  0  0  0  0  0  0  0  0
    7.1403   -0.8951   11.5314 H   0  0  0  0  0  0  0  0  0  0  0  0
    6.5518    0.7038   11.1757 H   0  0  0  0  0  0  0  0  0  0  0  0
    4.9116   -0.9956   10.4436 H   0  0  0  0  0  0  0  0  0  0  0  0
    6.1089   -1.8147    9.4863 H   0  0  0  0  0  0  0  0  0  0  0  0
    5.2197    1.8188    9.6701 H   0  0  0  0  0  0  0  0  0  0  0  0
    4.5688    1.8020    8.0424 H   0  0  0  0  0  0  0  0  0  0  0  0
    2.7212   -0.3831    7.8051 H   0  0  0  0  0  0  0  0  0  0  0  0
    0.4481   -0.7623    8.6531 H   0  0  0  0  0  0  0  0  0  0  0  0
   -0.6319    0.8613   11.8237 H   0  0  0  0  0  0  0  0  0  0  0  0
   -2.9495   -2.3714    8.4090 H   0  0  0  0  0  0  0  0  0  0  0  0
   -4.5416   -0.0154   12.8700 H   0  0  0  0  0  0  0  0  0  0  0  0
   -6.8438   -0.5121   13.9294 H   0  0  0  0  0  0  0  0  0  0  0  0
   -9.2096    0.0271   13.4556 H   0  0  0  0  0  0  0  0  0  0  0  0
   -9.3238    0.2771    8.6782 H   0  0  0  0  0  0  0  0  0  0  0  0
   -6.4315   -0.3914    7.9607 H   0  0  0  0  0  0  0  0  0  0  0  0
   -7.7353   -1.5700    8.1796 H   0  0  0  0  0  0  0  0  0  0  0  0
   -7.8314   -0.3692    6.8812 H   0  0  0  0  0  0  0  0  0  0  0  0
   -8.4709    2.5849    9.1388 H   0  0  0  0  0  0  0  0  0  0  0  0
   -6.8474    2.0928    8.6389 H   0  0  0  0  0  0  0  0  0  0  0  0
   -8.1723    2.1018    7.4625 H   0  0  0  0  0  0  0  0  0  0  0  0
    3.4257    2.1348   11.2117 H   0  0  0  0  0  0  0  0  0  0  0  0
    6.4745    0.9933    7.0650 H   0  0  0  0  0  0  0  0  0  0  0  0
    7.0654   -0.6062    7.4177 H   0  0  0  0  0  0  0  0  0  0  0  0
    7.5052    1.9092    9.1113 H   0  0  0  0  0  0  0  0  0  0  0  0
    8.7023    1.0985    8.1527 H   0  0  0  0  0  0  0  0  0  0  0  0
   -2.1419   -3.0088    2.1197 Ti  0  0  0  0  0  0  0  0  0  0  0  0
    0.2890   -1.6948    1.4324 Ti  0  0  0  0  0  0  0  0  0  0  0  0
    1.9031   -3.0677   -0.7293 Ti  0  0  0  0  0  0  0  0  0  0  0  0
   -2.5215   -0.2519    1.3037 Ti  0  0  0  0  0  0  0  0  0  0  0  0
    2.1420    0.4995    2.2044 Ti  0  0  0  0  0  0  0  0  0  0  0  0
   -0.6814    0.1896    3.6812 Ti  0  0  0  0  0  0  0  0  0  0  0  0
   -2.0368   -3.0777   -1.2005 Ti  0  0  0  0  0  0  0  0  0  0  0  0
   -0.6053   -0.7709   -2.0351 Ti  0  0  0  0  0  0  0  0  0  0  0  0
    1.9455   -1.5873   -3.4124 Ti  0  0  0  0  0  0  0  0  0  0  0  0
   -1.8782    1.7466   -1.2400 Ti  0  0  0  0  0  0  0  0  0  0  0  0
    2.4125    0.4542   -0.7742 Ti  0  0  0  0  0  0  0  0  0  0  0  0
    0.8177    1.8385   -2.9400 Ti  0  0  0  0  0  0  0  0  0  0  0  0
   -3.6784    1.2814    0.6007 C   0  0  0  0  0  0  0  0  0  0  0  0
    4.1282    0.4828    0.3873 C   0  0  0  0  0  0  0  0  0  0  0  0
    0.4555    2.2672    0.3497 C   0  0  0  0  0  0  0  0  0  0  0  0
   -3.6667    2.1188   -0.3139 C   0  0  0  0  0  0  0  0  0  0  0  0
    4.1160    0.6322    1.6214 C   0  0  0  0  0  0  0  0  0  0  0  0
   -0.6352    2.7410   -0.1189 C   0  0  0  0  0  0  0  0  0  0  0  0
    1.6301    1.7810    0.7342 C   0  0  0  0  0  0  0  0  0  0  0  0
   -3.0935   -1.9569    1.0379 O   0  0  0  0  0  0  0  0  0  0  0  0
   -0.4872   -2.6058    2.7012 O   0  0  0  0  0  0  0  0  0  0  0  0
    0.3141   -2.8889    0.1450 O   0  0  0  0  0  0  0  0  0  0  0  0
   -0.8008   -0.4359    0.9712 O   0  0  0  0  0  0  0  0  0  0  0  0
    1.9029   -1.1583    1.4694 O   0  0  0  0  0  0  0  0  0  0  0  0
   -2.3227   -0.1139    3.0248 O   0  0  0  0  0  0  0  0  0  0  0  0
    1.0138    0.4416    3.5688 O   0  0  0  0  0  0  0  0  0  0  0  0
   -1.7720   -4.5879   -1.6528 O   0  0  0  0  0  0  0  0  0  0  0  0
    0.1906   -1.1892   -3.5340 O   0  0  0  0  0  0  0  0  0  0  0  0
    2.8314   -2.1702   -1.9180 O   0  0  0  0  0  0  0  0  0  0  0  0
   -2.0546   -0.2244   -1.3375 O   0  0  0  0  0  0  0  0  0  0  0  0
    0.7685   -0.3906   -1.0637 O   0  0  0  0  0  0  0  0  0  0  0  0
   -0.9000    1.6493   -2.8186 O   0  0  0  0  0  0  0  0  0  0  0  0
    2.4153    1.3575   -2.2641 O   0  0  0  0  0  0  0  0  0  0  0  0
  1  2  1  0  0  0  0
  2  3  1  0  0  0  0
  3  4  1  0  0  0  0
  4  5  1  0  0  0  0
  5  6  1  0  0  0  0
  6  7  1  0  0  0  0
  7  8  1  0  0  0  0
  8  9  4  0  0  0  0
  9 10  4  0  0  0  0
 10 11  4  0  0  0  0
 11 12  1  0  0  0  0
 12 13  1  0  0  0  0
 13 14  4  0  0  0  0
 14 15  4  0  0  0  0
 15 16  4  0  0  0  0
 16 17  1  0  0  0  0
 16 18  4  0  0  0  0
 18 19  1  0  0  0  0
 19 20  1  0  0  0  0
 20 21  4  0  0  0  0
 21 22  4  0  0  0  0
 22 23  4  0  0  0  0
 23 24  1  0  0  0  0
 24 25  3  0  0  0  0
 23 26  4  0  0  0  0
 26 27  1  0  0  0  0
 27 28  1  0  0  0  0
 27 29  1  0  0  0  0
 20 30  4  0  0  0  0
 26 30  4  0  0  0  0
 13 31  4  0  0  0  0
 18 31  4  0  0  0  0
 11 32  4  0  0  0  0
  8 33  4  0  0  0  0
 32 33  4  0  0  0  0
  6 34  1  0  0  0  0
  3 35  1  0  0  0  0
 34 35  1  0  0  0  0
  1 36  1  0  0  0  0
  1 37  1  0  0  0  0
  1 38  1  0  0  0  0
  2 39  1  0  0  0  0
  2 40  1  0  0  0  0
  4 41  1  0  0  0  0
  4 42  1  0  0  0  0
  5 43  1  0  0  0  0
  5 44  1  0  0  0  0
  7 45  1  0  0  0  0
  7 46  1  0  0  0  0
  9 47  1  0  0  0  0
 10 48  1  0  0  0  0
 12 49  1  0  0  0  0
 15 50  1  0  0  0  0
 19 51  1  0  0  0  0
 21 52  1  0  0  0  0
 22 53  1  0  0  0  0
 27 54  1  0  0  0  0
 28 55  1  0  0  0  0
 28 56  1  0  0  0  0
 28 57  1  0  0  0  0
 29 58  1  0  0  0  0
 29 59  1  0  0  0  0
 29 60  1  0  0  0  0
 33 61  1  0  0  0  0
 34 62  1  0  0  0  0
 34 63  1  0  0  0  0
 35 64  1  0  0  0  0
 35 65  1  0  0  0  0
 66 72  1  0  0  0  0
 72 73  1  0  0  0  0
 68 74  1  0  0  0  0
 69 78  1  0  0  0  0
 76 79  1  0  0  0  0
 75 81  1  0  0  0  0
 78 81  3  0  0  0  0
 70 82  1  0  0  0  0
 79 82  3  0  0  0  0
 75 83  1  0  0  0  0
 80 83  2  0  0  0  0
 70 84  1  0  0  0  0
 76 84  1  0  0  0  0
 80 84  2  0  0  0  0
 66 85  1  0  0  0  0
 69 85  1  0  0  0  0
 66 86  1  0  0  0  0
 67 86  1  0  0  0  0
 67 87  1  0  0  0  0
 68 87  1  0  0  0  0
 67 88  1  0  0  0  0
 69 88  1  0  0  0  0
 67 89  1  0  0  0  0
 70 89  1  0  0  0  0
 69 90  1  0  0  0  0
 71 90  1  0  0  0  0
 70 91  1  0  0  0  0
 71 91  1  0  0  0  0
 72 92  2  0  0  0  0
 73 93  1  0  0  0  0
 74 93  1  0  0  0  0
 68 94  1  0  0  0  0
 74 94  1  0  0  0  0
 73 95  1  0  0  0  0
 75 95  1  0  0  0  0
 73 96  1  0  0  0  0
 76 96  1  0  0  0  0
 75 97  1  0  0  0  0
 77 97  1  0  0  0  0
 76 98  1  0  0  0  0
 77 98  1  0  0  0  0
M  END
