 xtb: 6.7.1pre (5071a88)
          08312621193D

 73 82  0     0  0            999 V2000
   -1.2127   -1.7513   11.3360 N   0  0  0  0  0  0  0  0  0  0  0  0
   -1.6955   -1.2139   10.1779 C   0  0  0  0  0  0  0  0  0  0  0  0
   -2.8571   -1.3920    9.8241 O   0  0  0  0  0  0  0  0  0  0  0  0
   -0.7719   -0.3593    9.3947 C   0  0  0  0  0  0  0  0  0  0  0  0
    0.5076   -0.7980    9.0048 C   0  0  0  0  0  0  0  0  0  0  0  0
    1.0124   -2.4384    9.3003 Cl  0  0  0  0  0  0  0  0  0  0  0  0
    1.3622    0.0673    8.2875 C   0  0  0  0  0  0  0  0  0  0  0  0
    2.6991   -0.2648    7.9334 N   0  0  0  0  0  0  0  0  0  0  0  0
    3.7764   -0.5248    8.8224 C   0  0  0  0  0  0  0  0  0  0  0  0
    4.9743   -1.0038    8.2692 C   0  0  0  0  0  0  0  0  0  0  0  0
    6.0731   -1.3071    9.0805 C   0  0  0  0  0  0  0  0  0  0  0  0
    5.9839   -1.1355   10.4608 C   0  0  0  0  0  0  0  0  0  0  0  0
    7.6140   -1.5854   11.6668 I   0  0  0  0  0  0  0  0  0  0  0  0
    4.8074   -0.6639   11.0343 C   0  0  0  0  0  0  0  0  0  0  0  0
    3.7178   -0.3659   10.2170 C   0  0  0  0  0  0  0  0  0  0  0  0
    2.6118    0.1114   10.8098 F   0  0  0  0  0  0  0  0  0  0  0  0
    0.8883    1.3480    7.9598 C   0  0  0  0  0  0  0  0  0  0  0  0
    1.6896    2.1888    7.2862 F   0  0  0  0  0  0  0  0  0  0  0  0
   -0.3822    1.7805    8.3154 C   0  0  0  0  0  0  0  0  0  0  0  0
   -1.2231    0.9193    9.0163 C   0  0  0  0  0  0  0  0  0  0  0  0
   -2.4539    1.3402    9.4432 O   0  0  0  0  0  0  0  0  0  0  0  0
   -3.3177    1.8547    8.4197 C   0  0  0  0  0  0  0  0  0  0  0  0
   -4.6006    1.0168    8.2940 C   0  0  0  0  0  0  0  0  0  0  0  0
   -4.2787   -0.2947    7.8139 O   0  0  0  0  0  0  0  0  0  0  0  0
   -5.4539    0.9254    9.5695 C   0  0  0  0  0  0  0  0  0  0  0  0
   -4.7522    0.4647   10.7171 O   0  0  0  0  0  0  0  0  0  0  0  0
   -1.8215   -2.3530   11.8755 H   0  0  0  0  0  0  0  0  0  0  0  0
   -0.2464   -1.6673   11.6241 H   0  0  0  0  0  0  0  0  0  0  0  0
    3.0277    0.3440    7.1812 H   0  0  0  0  0  0  0  0  0  0  0  0
    5.0535   -1.1615    7.1955 H   0  0  0  0  0  0  0  0  0  0  0  0
    6.9846   -1.6813    8.6201 H   0  0  0  0  0  0  0  0  0  0  0  0
    4.7138   -0.5177   12.1056 H   0  0  0  0  0  0  0  0  0  0  0  0
   -0.6867    2.7911    8.0642 H   0  0  0  0  0  0  0  0  0  0  0  0
   -2.8263    1.8753    7.4388 H   0  0  0  0  0  0  0  0  0  0  0  0
   -3.5718    2.8845    8.6933 H   0  0  0  0  0  0  0  0  0  0  0  0
   -5.2221    1.4709    7.5135 H   0  0  0  0  0  0  0  0  0  0  0  0
   -3.7642   -0.7500    8.5162 H   0  0  0  0  0  0  0  0  0  0  0  0
   -6.2915    0.2389    9.4077 H   0  0  0  0  0  0  0  0  0  0  0  0
   -5.8632    1.9107    9.8141 H   0  0  0  0  0  0  0  0  0  0  0  0
   -4.2045   -0.3026   10.4507 H   0  0  0  0  0  0  0  0  0  0  0  0
   -2.1419   -3.0088    2.1197 Ti  0  0  0  0  0  0  0  0  0  0  0  0
    0.2890   -1.6948    1.4324 Ti  0  0  0  0  0  0  0  0  0  0  0  0
    1.9031   -3.0677   -0.7293 Ti  0  0  0  0  0  0  0  0  0  0  0  0
   -2.5215   -0.2519    1.3037 Ti  0  0  0  0  0  0  0  0  0  0  0  0
    2.1420    0.4995    2.2044 Ti  0  0  0  0  0  0  0  0  0  0  0  0
   -0.6814    0.1896    3.6812 Ti  0  0  0  0  0  0  0  0  0  0  0  0
   -2.0368   -3.0777   -1.2005 Ti  0  0  0  0  0  0  0  0  0  0  0  0
   -0.6053   -0.7709   -2.0351 Ti  0  0  0  0  0  0  0  0  0  0  0  0
    1.9455   -1.5873   -3.4124 Ti  0  0  0  0  0  0  0  0  0  0  0  0
   -1.8782    1.7466   -1.2400 Ti  0  0  0  0  0  0  0  0  0  0  0  0
    2.4125    0.4542   -0.7742 Ti  0  0  0  0  0  0  0  0  0  0  0  0
    0.8177    1.8385   -2.9400 Ti  0  0  0  0  0  0  0  0  0  0  0  0
   -3.6784    1.2814    0.6007 C   0  0  0  0  0  0  0  0  0  0  0  0
    4.1282    0.4828    0.3873 C   0  0  0  0  0  0  0  0  0  0  0  0
    0.4555    2.2672    0.3497 C   0  0  0  0  0  0  0  0  0  0  0  0
   -3.6667    2.1188   -0.3139 C   0  0  0  0  0  0  0  0  0  0  0  0
    4.1160    0.6322    1.6214 C   0  0  0  0  0  0  0  0  0  0  0  0
   -0.6352    2.7410   -0.1189 C   0  0  0  0  0  0  0  0  0  0  0  0
    1.6301    1.7810    0.7342 C   0  0  0  0  0  0  0  0  0  0  0  0
   -3.0935   -1.9569    1.0379 O   0  0  0  0  0  0  0  0  0  0  0  0
   -0.4872   -2.6058    2.7012 O   0  0  0  0  0  0  0  0  0  0  0  0
    0.3141   -2.8889    0.1450 O   0  0  0  0  0  0  0  0  0  0  0  0
   -0.8008   -0.4359    0.9712 O   0  0  0  0  0  0  0  0  0  0  0  0
    1.9029   -1.1583    1.4694 O   0  0  0  0  0  0  0  0  0  0  0  0
   -2.3227   -0.1139    3.0248 O   0  0  0  0  0  0  0  0  0  0  0  0
    1.0138    0.4416    3.5688 O   0  0  0  0  0  0  0  0  0  0  0  0
   -1.7720   -4.5879   -1.6528 O   0  0  0  0  0  0  0  0  0  0  0  0
    0.1906   -1.1892   -3.5340 O   0  0  0  0  0  0  0  0  0  0  0  0
    2.8314   -2.1702   -1.9180 O   0  0  0  0  0  0  0  0  0  0  0  0
   -2.0546   -0.2244   -1.3375 O   0  0  0  0  0  0  0  0  0  0  0  0
    0.7685   -0.3906   -1.0637 O   0  0  0  0  0  0  0  0  0  0  0  0
   -0.9000    1.6493   -2.8186 O   0  0  0  0  0  0  0  0  0  0  0  0
    2.4153    1.3575   -2.2641 O   0  0  0  0  0  0  0  0  0  0  0  0
  1  2  4  0  0  0  0
  2  3  2  0  0  0  0
  2  4  1  0  0  0  0
  4  5  4  0  0  0  0
  5  6  1  0  0  0  0
  5  7  4  0  0  0  0
  7  8  1  0  0  0  0
  8  9  1  0  0  0  0
  9 10  4  0  0  0  0
 10 11  4  0  0  0  0
 11 12  4  0  0  0  0
 12 13  1  0  0  0  0
 12 14  4  0  0  0  0
  9 15  4  0  0  0  0
 14 15  4  0  0  0  0
 15 16  1  0  0  0  0
  7 17  4  0  0  0  0
 17 18  1  0  0  0  0
 17 19  4  0  0  0  0
  4 20  4  0  0  0  0
 19 20  4  0  0  0  0
 20 21  1  0  0  0  0
 21 22  1  0  0  0  0
 22 23  1  0  0  0  0
 23 24  1  0  0  0  0
 23 25  1  0  0  0  0
 25 26  1  0  0  0  0
  1 27  1  0  0  0  0
  1 28  1  0  0  0  0
  8 29  1  0  0  0  0
 10 30  1  0  0  0  0
 11 31  1  0  0  0  0
 14 32  1  0  0  0  0
 19 33  1  0  0  0  0
 22 34  1  0  0  0  0
 22 35  1  0  0  0  0
 23 36  1  0  0  0  0
 24 37  1  0  0  0  0
 25 38  1  0  0  0  0
 25 39  1  0  0  0  0
 26 40  1  0  0  0  0
 41 47  1  0  0  0  0
 47 48  1  0  0  0  0
 43 49  1  0  0  0  0
 44 53  1  0  0  0  0
 51 54  1  0  0  0  0
 50 56  1  0  0  0  0
 53 56  3  0  0  0  0
 45 57  1  0  0  0  0
 54 57  3  0  0  0  0
 50 58  1  0  0  0  0
 55 58  2  0  0  0  0
 45 59  1  0  0  0  0
 51 59  1  0  0  0  0
 55 59  2  0  0  0  0
 41 60  1  0  0  0  0
 44 60  1  0  0  0  0
 41 61  1  0  0  0  0
 42 61  1  0  0  0  0
 42 62  1  0  0  0  0
 43 62  1  0  0  0  0
 42 63  1  0  0  0  0
 44 63  1  0  0  0  0
 42 64  1  0  0  0  0
 45 64  1  0  0  0  0
 44 65  1  0  0  0  0
 46 65  1  0  0  0  0
 45 66  1  0  0  0  0
 46 66  1  0  0  0  0
 47 67  2  0  0  0  0
 48 68  1  0  0  0  0
 49 68  1  0  0  0  0
 43 69  1  0  0  0  0
 49 69  1  0  0  0  0
 48 70  1  0  0  0  0
 50 70  1  0  0  0  0
 48 71  1  0  0  0  0
 51 71  1  0  0  0  0
 50 72  1  0  0  0  0
 52 72  1  0  0  0  0
 51 73  1  0  0  0  0
 52 73  1  0  0  0  0
M  END
