 xtb: 6.7.1pre (5071a88)
          08312620413D

 73 84  0     0  0            999 V2000
   -1.2127   -1.7513    7.5859 N   0  0  0  0  0  0  0  0  0  0  0  0
   -1.6955   -1.2139    6.4278 C   0  0  0  0  0  0  0  0  0  0  0  0
   -2.8571   -1.3920    6.0740 O   0  0  0  0  0  0  0  0  0  0  0  0
   -0.7719   -0.3593    5.6446 C   0  0  0  0  0  0  0  0  0  0  0  0
    0.5076   -0.7980    5.2548 C   0  0  0  0  0  0  0  0  0  0  0  0
    1.0124   -2.4384    5.5503 Cl  0  0  0  0  0  0  0  0  0  0  0  0
    1.3622    0.0673    4.5375 C   0  0  0  0  0  0  0  0  0  0  0  0
    2.6991   -0.2648    4.1834 N   0  0  0  0  0  0  0  0  0  0  0  0
    3.7764   -0.5248    5.0723 C   0  0  0  0  0  0  0  0  0  0  0  0
    4.9743   -1.0038    4.5192 C   0  0  0  0  0  0  0  0  0  0  0  0
    6.0731   -1.3071    5.3304 C   0  0  0  0  0  0  0  0  0  0  0  0
    5.9839   -1.1355    6.7107 C   0  0  0  0  0  0  0  0  0  0  0  0
    7.6140   -1.5854    7.9168 I   0  0  0  0  0  0  0  0  0  0  0  0
    4.8074   -0.6639    7.2842 C   0  0  0  0  0  0  0  0  0  0  0  0
    3.7178   -0.3659    6.4670 C   0  0  0  0  0  0  0  0  0  0  0  0
    2.6118    0.1114    7.0597 F   0  0  0  0  0  0  0  0  0  0  0  0
    0.8883    1.3480    4.2098 C   0  0  0  0  0  0  0  0  0  0  0  0
    1.6896    2.1888    3.5361 F   0  0  0  0  0  0  0  0  0  0  0  0
   -0.3822    1.7805    4.5653 C   0  0  0  0  0  0  0  0  0  0  0  0
   -1.2231    0.9193    5.2663 C   0  0  0  0  0  0  0  0  0  0  0  0
   -2.4539    1.3402    5.6932 O   0  0  0  0  0  0  0  0  0  0  0  0
   -3.3177    1.8547    4.6696 C   0  0  0  0  0  0  0  0  0  0  0  0
   -4.6006    1.0168    4.5440 C   0  0  0  0  0  0  0  0  0  0  0  0
   -4.2787   -0.2947    4.0638 O   0  0  0  0  0  0  0  0  0  0  0  0
   -5.4539    0.9254    5.8194 C   0  0  0  0  0  0  0  0  0  0  0  0
   -4.7522    0.4647    6.9670 O   0  0  0  0  0  0  0  0  0  0  0  0
   -1.8215   -2.3530    8.1255 H   0  0  0  0  0  0  0  0  0  0  0  0
   -0.2464   -1.6673    7.8740 H   0  0  0  0  0  0  0  0  0  0  0  0
    3.0277    0.3440    3.4312 H   0  0  0  0  0  0  0  0  0  0  0  0
    5.0535   -1.1615    3.4455 H   0  0  0  0  0  0  0  0  0  0  0  0
    6.9846   -1.6813    4.8701 H   0  0  0  0  0  0  0  0  0  0  0  0
    4.7138   -0.5177    8.3556 H   0  0  0  0  0  0  0  0  0  0  0  0
   -0.6867    2.7911    4.3141 H   0  0  0  0  0  0  0  0  0  0  0  0
   -2.8263    1.8753    3.6888 H   0  0  0  0  0  0  0  0  0  0  0  0
   -3.5718    2.8845    4.9432 H   0  0  0  0  0  0  0  0  0  0  0  0
   -5.2221    1.4709    3.7635 H   0  0  0  0  0  0  0  0  0  0  0  0
   -3.7642   -0.7500    4.7661 H   0  0  0  0  0  0  0  0  0  0  0  0
   -6.2915    0.2389    5.6576 H   0  0  0  0  0  0  0  0  0  0  0  0
   -5.8632    1.9107    6.0641 H   0  0  0  0  0  0  0  0  0  0  0  0
   -4.2045   -0.3026    6.7007 H   0  0  0  0  0  0  0  0  0  0  0  0
   -3.0000   -2.6000    1.2500 Ti  0  0  0  0  0  0  0  0  0  0  0  0
    0.0000   -2.6000    1.2500 Ti  0  0  0  0  0  0  0  0  0  0  0  0
    3.0000   -2.6000    1.2500 Ti  0  0  0  0  0  0  0  0  0  0  0  0
   -1.5000    0.0000    1.2500 Ti  0  0  0  0  0  0  0  0  0  0  0  0
    1.5000    0.0000    1.2500 Ti  0  0  0  0  0  0  0  0  0  0  0  0
    0.0000    2.6000    1.2500 Ti  0  0  0  0  0  0  0  0  0  0  0  0
   -3.0000   -2.6000   -1.2500 Ti  0  0  0  0  0  0  0  0  0  0  0  0
    0.0000   -2.6000   -1.2500 Ti  0  0  0  0  0  0  0  0  0  0  0  0
    3.0000   -2.6000   -1.2500 Ti  0  0  0  0  0  0  0  0  0  0  0  0
   -1.5000    0.0000   -1.2500 Ti  0  0  0  0  0  0  0  0  0  0  0  0
    1.5000    0.0000   -1.2500 Ti  0  0  0  0  0  0  0  0  0  0  0  0
    0.0000    2.6000   -1.2500 Ti  0  0  0  0  0  0  0  0  0  0  0  0
   -1.5000   -1.3000    0.0000 C   0  0  0  0  0  0  0  0  0  0  0  0
    1.5000   -1.3000    0.0000 C   0  0  0  0  0  0  0  0  0  0  0  0
    0.0000    1.3000    0.0000 C   0  0  0  0  0  0  0  0  0  0  0  0
   -3.0000    0.0000    0.0000 C   0  0  0  0  0  0  0  0  0  0  0  0
    3.0000    0.0000    0.0000 C   0  0  0  0  0  0  0  0  0  0  0  0
   -1.5000    2.6000    0.0000 C   0  0  0  0  0  0  0  0  0  0  0  0
    1.5000    2.6000    0.0000 C   0  0  0  0  0  0  0  0  0  0  0  0
   -3.0000   -2.6000    2.4500 O   0  0  0  0  0  0  0  0  0  0  0  0
    0.0000   -2.6000    2.4500 O   0  0  0  0  0  0  0  0  0  0  0  0
    3.0000   -2.6000    2.4500 O   0  0  0  0  0  0  0  0  0  0  0  0
   -1.5000    0.0000    2.4500 O   0  0  0  0  0  0  0  0  0  0  0  0
    1.5000    0.0000    2.4500 O   0  0  0  0  0  0  0  0  0  0  0  0
   -1.5000    2.6000    2.4500 O   0  0  0  0  0  0  0  0  0  0  0  0
    1.5000    2.6000    2.4500 O   0  0  0  0  0  0  0  0  0  0  0  0
   -3.0000   -2.6000   -2.4500 O   0  0  0  0  0  0  0  0  0  0  0  0
    0.0000   -2.6000   -2.4500 O   0  0  0  0  0  0  0  0  0  0  0  0
    3.0000   -2.6000   -2.4500 O   0  0  0  0  0  0  0  0  0  0  0  0
   -1.5000    0.0000   -2.4500 O   0  0  0  0  0  0  0  0  0  0  0  0
    1.5000    0.0000   -2.4500 O   0  0  0  0  0  0  0  0  0  0  0  0
   -1.5000    2.6000   -2.4500 O   0  0  0  0  0  0  0  0  0  0  0  0
    1.5000    2.6000   -2.4500 O   0  0  0  0  0  0  0  0  0  0  0  0
  1  2  4  0  0  0  0
  2  3  2  0  0  0  0
  2  4  1  0  0  0  0
  4  5  4  0  0  0  0
  5  6  1  0  0  0  0
  5  7  4  0  0  0  0
  7  8  1  0  0  0  0
  8  9  1  0  0  0  0
  9 10  4  0  0  0  0
 10 11  4  0  0  0  0
 11 12  4  0  0  0  0
 12 13  1  0  0  0  0
 12 14  4  0  0  0  0
  9 15  4  0  0  0  0
 14 15  4  0  0  0  0
 15 16  1  0  0  0  0
  7 17  4  0  0  0  0
 17 18  1  0  0  0  0
 17 19  4  0  0  0  0
  4 20  4  0  0  0  0
 19 20  4  0  0  0  0
 20 21  1  0  0  0  0
 21 22  1  0  0  0  0
 22 23  1  0  0  0  0
 23 24  1  0  0  0  0
 23 25  1  0  0  0  0
 25 26  1  0  0  0  0
  1 27  1  0  0  0  0
  1 28  1  0  0  0  0
  8 29  1  0  0  0  0
 10 30  1  0  0  0  0
 11 31  1  0  0  0  0
 14 32  1  0  0  0  0
 19 33  1  0  0  0  0
 22 34  1  0  0  0  0
 22 35  1  0  0  0  0
 23 36  1  0  0  0  0
 24 37  1  0  0  0  0
 25 38  1  0  0  0  0
 25 39  1  0  0  0  0
 26 40  1  0  0  0  0
 41 42  1  0  0  0  0
 42 43  1  0  0  0  0
 41 47  1  0  0  0  0
 42 48  1  0  0  0  0
 47 48  1  0  0  0  0
 43 49  1  0  0  0  0
 48 49  1  0  0  0  0
 46 52  1  0  0  0  0
 44 53  1  0  0  0  0
 50 53  1  0  0  0  0
 45 54  1  0  0  0  0
 51 54  1  0  0  0  0
 46 55  1  0  0  0  0
 52 55  1  0  0  0  0
 44 56  1  0  0  0  0
 50 56  1  0  0  0  0
 53 56  1  0  0  0  0
 45 57  1  0  0  0  0
 51 57  1  0  0  0  0
 54 57  1  0  0  0  0
 46 58  1  0  0  0  0
 52 58  1  0  0  0  0
 55 58  1  0  0  0  0
 46 59  1  0  0  0  0
 52 59  1  0  0  0  0
 55 59  1  0  0  0  0
 41 60  2  0  0  0  0
 42 61  2  0  0  0  0
 43 62  2  0  0  0  0
 44 63  2  0  0  0  0
 45 64  2  0  0  0  0
 46 65  1  0  0  0  0
 18 66  1  0  0  0  0
 46 66  1  0  0  0  0
 47 67  2  0  0  0  0
 48 68  2  0  0  0  0
 49 69  2  0  0  0  0
 50 70  2  0  0  0  0
 51 71  2  0  0  0  0
 52 72  1  0  0  0  0
 58 72  1  0  0  0  0
 52 73  1  0  0  0  0
 59 73  1  0  0  0  0
M  END
