 xtb: 6.7.1pre (5071a88)
          08312621573D

 73 82  0     0  0            999 V2000
   -1.8220   -3.2010    9.5138 N   0  0  0  0  0  0  0  0  0  0  0  0
   -1.9705   -1.9685   10.0818 C   0  0  0  0  0  0  0  0  0  0  0  0
   -2.9466   -1.6843   10.7650 O   0  0  0  0  0  0  0  0  0  0  0  0
   -0.9127   -0.9750    9.8067 C   0  0  0  0  0  0  0  0  0  0  0  0
    0.4283   -1.1901   10.1687 C   0  0  0  0  0  0  0  0  0  0  0  0
    0.9073   -2.6494   10.9925 Cl  0  0  0  0  0  0  0  0  0  0  0  0
    1.4225   -0.2173    9.8958 C   0  0  0  0  0  0  0  0  0  0  0  0
    2.7700   -0.4888   10.2246 N   0  0  0  0  0  0  0  0  0  0  0  0
    4.0047   -0.1198    9.6588 C   0  0  0  0  0  0  0  0  0  0  0  0
    4.1465    0.4126    8.3748 C   0  0  0  0  0  0  0  0  0  0  0  0
    5.4049    0.7898    7.8864 C   0  0  0  0  0  0  0  0  0  0  0  0
    6.5388    0.6396    8.6843 C   0  0  0  0  0  0  0  0  0  0  0  0
    8.4001    1.2011    7.9542 I   0  0  0  0  0  0  0  0  0  0  0  0
    6.4274    0.1122    9.9654 C   0  0  0  0  0  0  0  0  0  0  0  0
    5.1697   -0.2573   10.4347 C   0  0  0  0  0  0  0  0  0  0  0  0
    5.0725   -0.7715   11.6720 F   0  0  0  0  0  0  0  0  0  0  0  0
    1.0106    0.9666    9.2622 C   0  0  0  0  0  0  0  0  0  0  0  0
    1.8843    1.9544    9.0180 F   0  0  0  0  0  0  0  0  0  0  0  0
   -0.3172    1.1941    8.9119 C   0  0  0  0  0  0  0  0  0  0  0  0
   -1.2799    0.2323    9.2001 C   0  0  0  0  0  0  0  0  0  0  0  0
   -2.5701    0.4428    8.7905 O   0  0  0  0  0  0  0  0  0  0  0  0
   -3.2420    1.3836    9.6496 C   0  0  0  0  0  0  0  0  0  0  0  0
   -4.7441    1.4068    9.3297 C   0  0  0  0  0  0  0  0  0  0  0  0
   -4.9408    1.9778    8.0293 O   0  0  0  0  0  0  0  0  0  0  0  0
   -5.3923    0.0196    9.4014 C   0  0  0  0  0  0  0  0  0  0  0  0
   -5.3638   -0.5002   10.7231 O   0  0  0  0  0  0  0  0  0  0  0  0
   -0.9970   -3.4835    9.0022 H   0  0  0  0  0  0  0  0  0  0  0  0
   -2.5178   -3.9055    9.7235 H   0  0  0  0  0  0  0  0  0  0  0  0
    2.8772   -1.1537   10.9918 H   0  0  0  0  0  0  0  0  0  0  0  0
    3.2872    0.5267    7.7207 H   0  0  0  0  0  0  0  0  0  0  0  0
    5.4786    1.1988    6.8812 H   0  0  0  0  0  0  0  0  0  0  0  0
    7.2902   -0.0181   10.6099 H   0  0  0  0  0  0  0  0  0  0  0  0
   -0.5853    2.1206    8.4126 H   0  0  0  0  0  0  0  0  0  0  0  0
   -3.0930    1.1118   10.7022 H   0  0  0  0  0  0  0  0  0  0  0  0
   -2.8250    2.3829    9.4745 H   0  0  0  0  0  0  0  0  0  0  0  0
   -5.2278    2.0738   10.0532 H   0  0  0  0  0  0  0  0  0  0  0  0
   -5.9003    2.0109    7.8708 H   0  0  0  0  0  0  0  0  0  0  0  0
   -4.9248   -0.6921    8.7119 H   0  0  0  0  0  0  0  0  0  0  0  0
   -6.4424    0.0917    9.0976 H   0  0  0  0  0  0  0  0  0  0  0  0
   -4.5055   -0.9744   10.8250 H   0  0  0  0  0  0  0  0  0  0  0  0
   -2.1419   -3.0088    2.1197 Ti  0  0  0  0  0  0  0  0  0  0  0  0
    0.2890   -1.6948    1.4324 Ti  0  0  0  0  0  0  0  0  0  0  0  0
    1.9031   -3.0677   -0.7293 Ti  0  0  0  0  0  0  0  0  0  0  0  0
   -2.5215   -0.2519    1.3037 Ti  0  0  0  0  0  0  0  0  0  0  0  0
    2.1420    0.4995    2.2044 Ti  0  0  0  0  0  0  0  0  0  0  0  0
   -0.6814    0.1896    3.6812 Ti  0  0  0  0  0  0  0  0  0  0  0  0
   -2.0368   -3.0777   -1.2005 Ti  0  0  0  0  0  0  0  0  0  0  0  0
   -0.6053   -0.7709   -2.0351 Ti  0  0  0  0  0  0  0  0  0  0  0  0
    1.9455   -1.5873   -3.4124 Ti  0  0  0  0  0  0  0  0  0  0  0  0
   -1.8782    1.7466   -1.2400 Ti  0  0  0  0  0  0  0  0  0  0  0  0
    2.4125    0.4542   -0.7742 Ti  0  0  0  0  0  0  0  0  0  0  0  0
    0.8177    1.8385   -2.9400 Ti  0  0  0  0  0  0  0  0  0  0  0  0
   -3.6784    1.2814    0.6007 C   0  0  0  0  0  0  0  0  0  0  0  0
    4.1282    0.4828    0.3873 C   0  0  0  0  0  0  0  0  0  0  0  0
    0.4555    2.2672    0.3497 C   0  0  0  0  0  0  0  0  0  0  0  0
   -3.6667    2.1188   -0.3139 C   0  0  0  0  0  0  0  0  0  0  0  0
    4.1160    0.6322    1.6214 C   0  0  0  0  0  0  0  0  0  0  0  0
   -0.6352    2.7410   -0.1189 C   0  0  0  0  0  0  0  0  0  0  0  0
    1.6301    1.7810    0.7342 C   0  0  0  0  0  0  0  0  0  0  0  0
   -3.0935   -1.9569    1.0379 O   0  0  0  0  0  0  0  0  0  0  0  0
   -0.4872   -2.6058    2.7012 O   0  0  0  0  0  0  0  0  0  0  0  0
    0.3141   -2.8889    0.1450 O   0  0  0  0  0  0  0  0  0  0  0  0
   -0.8008   -0.4359    0.9712 O   0  0  0  0  0  0  0  0  0  0  0  0
    1.9029   -1.1583    1.4694 O   0  0  0  0  0  0  0  0  0  0  0  0
   -2.3227   -0.1139    3.0248 O   0  0  0  0  0  0  0  0  0  0  0  0
    1.0138    0.4416    3.5688 O   0  0  0  0  0  0  0  0  0  0  0  0
   -1.7720   -4.5879   -1.6528 O   0  0  0  0  0  0  0  0  0  0  0  0
    0.1906   -1.1892   -3.5340 O   0  0  0  0  0  0  0  0  0  0  0  0
    2.8314   -2.1702   -1.9180 O   0  0  0  0  0  0  0  0  0  0  0  0
   -2.0546   -0.2244   -1.3375 O   0  0  0  0  0  0  0  0  0  0  0  0
    0.7685   -0.3906   -1.0637 O   0  0  0  0  0  0  0  0  0  0  0  0
   -0.9000    1.6493   -2.8186 O   0  0  0  0  0  0  0  0  0  0  0  0
    2.4153    1.3575   -2.2641 O   0  0  0  0  0  0  0  0  0  0  0  0
  1  2  4  0  0  0  0
  2  3  2  0  0  0  0
  2  4  1  0  0  0  0
  4  5  4  0  0  0  0
  5  6  1  0  0  0  0
  5  7  4  0  0  0  0
  7  8  1  0  0  0  0
  8  9  1  0  0  0  0
  9 10  4  0  0  0  0
 10 11  4  0  0  0  0
 11 12  4  0  0  0  0
 12 13  1  0  0  0  0
 12 14  4  0  0  0  0
  9 15  4  0  0  0  0
 14 15  4  0  0  0  0
 15 16  1  0  0  0  0
  7 17  4  0  0  0  0
 17 18  1  0  0  0  0
 17 19  4  0  0  0  0
  4 20  4  0  0  0  0
 19 20  4  0  0  0  0
 20 21  1  0  0  0  0
 21 22  1  0  0  0  0
 22 23  1  0  0  0  0
 23 24  1  0  0  0  0
 23 25  1  0  0  0  0
 25 26  1  0  0  0  0
  1 27  1  0  0  0  0
  1 28  1  0  0  0  0
  8 29  1  0  0  0  0
 10 30  1  0  0  0  0
 11 31  1  0  0  0  0
 14 32  1  0  0  0  0
 19 33  1  0  0  0  0
 22 34  1  0  0  0  0
 22 35  1  0  0  0  0
 23 36  1  0  0  0  0
 24 37  1  0  0  0  0
 25 38  1  0  0  0  0
 25 39  1  0  0  0  0
 26 40  1  0  0  0  0
 41 47  1  0  0  0  0
 47 48  1  0  0  0  0
 43 49  1  0  0  0  0
 44 53  1  0  0  0  0
 51 54  1  0  0  0  0
 50 56  1  0  0  0  0
 53 56  3  0  0  0  0
 45 57  1  0  0  0  0
 54 57  3  0  0  0  0
 50 58  1  0  0  0  0
 55 58  2  0  0  0  0
 45 59  1  0  0  0  0
 51 59  1  0  0  0  0
 55 59  2  0  0  0  0
 41 60  1  0  0  0  0
 44 60  1  0  0  0  0
 41 61  1  0  0  0  0
 42 61  1  0  0  0  0
 42 62  1  0  0  0  0
 43 62  1  0  0  0  0
 42 63  1  0  0  0  0
 44 63  1  0  0  0  0
 42 64  1  0  0  0  0
 45 64  1  0  0  0  0
 44 65  1  0  0  0  0
 46 65  1  0  0  0  0
 45 66  1  0  0  0  0
 46 66  1  0  0  0  0
 47 67  2  0  0  0  0
 48 68  1  0  0  0  0
 49 68  1  0  0  0  0
 43 69  1  0  0  0  0
 49 69  1  0  0  0  0
 48 70  1  0  0  0  0
 50 70  1  0  0  0  0
 48 71  1  0  0  0  0
 51 71  1  0  0  0  0
 50 72  1  0  0  0  0
 52 72  1  0  0  0  0
 51 73  1  0  0  0  0
 52 73  1  0  0  0  0
M  END
