 xtb: 6.7.1pre (5071a88)
          08312621553D

 94106  0     0  0            999 V2000
   -6.6118    2.0500   14.4808 C   0  0  0  0  0  0  0  0  0  0  0  0
   -7.2201    1.1031   13.6141 O   0  0  0  0  0  0  0  0  0  0  0  0
   -6.4911   -0.0055   13.2663 C   0  0  0  0  0  0  0  0  0  0  0  0
   -5.1728   -0.2427   13.6603 C   0  0  0  0  0  0  0  0  0  0  0  0
   -4.4925   -1.4123   13.2530 C   0  0  0  0  0  0  0  0  0  0  0  0
   -3.1601   -1.6994   13.6082 C   0  0  0  0  0  0  0  0  0  0  0  0
   -2.4795   -0.8201   14.4257 O   0  0  0  0  0  0  0  0  0  0  0  0
   -1.3084   -0.2906   13.9325 C   0  0  0  0  0  0  0  0  0  0  0  0
   -1.1669    0.1664   12.6217 C   0  0  0  0  0  0  0  0  0  0  0  0
    0.0474    0.7265   12.2027 C   0  0  0  0  0  0  0  0  0  0  0  0
    1.1224    0.8466   13.0892 C   0  0  0  0  0  0  0  0  0  0  0  0
    2.3695    1.3996   12.7399 N   0  0  0  0  0  0  0  0  0  0  0  0
    2.7734    1.8441   11.4990 C   0  0  0  0  0  0  0  0  0  0  0  0
    2.1479    1.8233   10.4491 O   0  0  0  0  0  0  0  0  0  0  0  0
    4.1703    2.3863   11.4931 C   0  0  0  0  0  0  0  0  0  0  0  0
    5.2558    1.3548   11.4439 C   0  0  0  0  0  0  0  0  0  0  0  0
    5.7439    0.9738   12.4979 O   0  0  0  0  0  0  0  0  0  0  0  0
    5.5511    0.9358   10.1649 N   0  0  0  0  0  0  0  0  0  0  0  0
    6.5193   -0.0085    9.7735 C   0  0  0  0  0  0  0  0  0  0  0  0
    6.5973   -0.3143    8.4065 C   0  0  0  0  0  0  0  0  0  0  0  0
    7.5336   -1.2391    7.9375 C   0  0  0  0  0  0  0  0  0  0  0  0
    8.3929   -1.8570    8.8356 C   0  0  0  0  0  0  0  0  0  0  0  0
    9.2913   -2.7433    8.3879 F   0  0  0  0  0  0  0  0  0  0  0  0
    8.3322   -1.5661   10.1917 C   0  0  0  0  0  0  0  0  0  0  0  0
    7.3949   -0.6405   10.6618 C   0  0  0  0  0  0  0  0  0  0  0  0
    4.4367    3.6642   12.2911 C   0  0  0  0  0  0  0  0  0  0  0  0
    4.4200    3.7251   10.7972 C   0  0  0  0  0  0  0  0  0  0  0  0
    0.9646    0.4072   14.4076 C   0  0  0  0  0  0  0  0  0  0  0  0
   -0.2445   -0.1494   14.8192 C   0  0  0  0  0  0  0  0  0  0  0  0
   -0.3667   -0.5599   16.0900 F   0  0  0  0  0  0  0  0  0  0  0  0
   -2.5526   -2.8842   13.2055 C   0  0  0  0  0  0  0  0  0  0  0  0
   -3.2906   -3.7368   12.4149 C   0  0  0  0  0  0  0  0  0  0  0  0
   -4.5599   -3.4894   12.0258 N   0  0  0  0  0  0  0  0  0  0  0  0
   -5.1504   -2.3546   12.4424 C   0  0  0  0  0  0  0  0  0  0  0  0
   -6.4598   -2.1044   12.0565 C   0  0  0  0  0  0  0  0  0  0  0  0
   -7.1416   -0.9475   12.4525 C   0  0  0  0  0  0  0  0  0  0  0  0
   -8.4349   -0.6497   12.0993 O   0  0  0  0  0  0  0  0  0  0  0  0
   -9.1303   -1.5875   11.2897 C   0  0  0  0  0  0  0  0  0  0  0  0
   -5.7350    2.5077   14.0112 H   0  0  0  0  0  0  0  0  0  0  0  0
   -7.3393    2.8450   14.6708 H   0  0  0  0  0  0  0  0  0  0  0  0
   -6.3552    1.5974   15.4443 H   0  0  0  0  0  0  0  0  0  0  0  0
   -4.6443    0.4686   14.2868 H   0  0  0  0  0  0  0  0  0  0  0  0
   -1.9901    0.1052   11.9144 H   0  0  0  0  0  0  0  0  0  0  0  0
    0.1152    1.0682   11.1737 H   0  0  0  0  0  0  0  0  0  0  0  0
    3.0719    1.4349   13.4727 H   0  0  0  0  0  0  0  0  0  0  0  0
    4.9766    1.3253    9.4249 H   0  0  0  0  0  0  0  0  0  0  0  0
    5.9307    0.1587    7.6896 H   0  0  0  0  0  0  0  0  0  0  0  0
    7.5962   -1.4802    6.8812 H   0  0  0  0  0  0  0  0  0  0  0  0
    9.0129   -2.0585   10.8791 H   0  0  0  0  0  0  0  0  0  0  0  0
    7.3776   -0.4345   11.7275 H   0  0  0  0  0  0  0  0  0  0  0  0
    3.6132    4.1288   12.8225 H   0  0  0  0  0  0  0  0  0  0  0  0
    5.3928    3.7613   12.7953 H   0  0  0  0  0  0  0  0  0  0  0  0
    3.5796    4.2150   10.3159 H   0  0  0  0  0  0  0  0  0  0  0  0
    5.3661    3.8836   10.2911 H   0  0  0  0  0  0  0  0  0  0  0  0
    1.7676    0.4856   15.1339 H   0  0  0  0  0  0  0  0  0  0  0  0
   -1.5419   -3.1376   13.5015 H   0  0  0  0  0  0  0  0  0  0  0  0
   -2.8739   -4.6759   12.0615 H   0  0  0  0  0  0  0  0  0  0  0  0
   -6.9353   -2.8520   11.4299 H   0  0  0  0  0  0  0  0  0  0  0  0
   -8.6449   -1.7044   10.3152 H   0  0  0  0  0  0  0  0  0  0  0  0
   -9.2336   -2.5506   11.8002 H   0  0  0  0  0  0  0  0  0  0  0  0
  -10.1368   -1.1956   11.1139 H   0  0  0  0  0  0  0  0  0  0  0  0
   -2.1419   -3.0088    2.1197 Ti  0  0  0  0  0  0  0  0  0  0  0  0
    0.2890   -1.6948    1.4324 Ti  0  0  0  0  0  0  0  0  0  0  0  0
    1.9031   -3.0677   -0.7293 Ti  0  0  0  0  0  0  0  0  0  0  0  0
   -2.5215   -0.2519    1.3037 Ti  0  0  0  0  0  0  0  0  0  0  0  0
    2.1420    0.4995    2.2044 Ti  0  0  0  0  0  0  0  0  0  0  0  0
   -0.6814    0.1896    3.6812 Ti  0  0  0  0  0  0  0  0  0  0  0  0
   -2.0368   -3.0777   -1.2005 Ti  0  0  0  0  0  0  0  0  0  0  0  0
   -0.6053   -0.7709   -2.0351 Ti  0  0  0  0  0  0  0  0  0  0  0  0
    1.9455   -1.5873   -3.4124 Ti  0  0  0  0  0  0  0  0  0  0  0  0
   -1.8782    1.7466   -1.2400 Ti  0  0  0  0  0  0  0  0  0  0  0  0
    2.4125    0.4542   -0.7742 Ti  0  0  0  0  0  0  0  0  0  0  0  0
    0.8177    1.8385   -2.9400 Ti  0  0  0  0  0  0  0  0  0  0  0  0
   -3.6784    1.2814    0.6007 C   0  0  0  0  0  0  0  0  0  0  0  0
    4.1282    0.4828    0.3873 C   0  0  0  0  0  0  0  0  0  0  0  0
    0.4555    2.2672    0.3497 C   0  0  0  0  0  0  0  0  0  0  0  0
   -3.6667    2.1188   -0.3139 C   0  0  0  0  0  0  0  0  0  0  0  0
    4.1160    0.6322    1.6214 C   0  0  0  0  0  0  0  0  0  0  0  0
   -0.6352    2.7410   -0.1189 C   0  0  0  0  0  0  0  0  0  0  0  0
    1.6301    1.7810    0.7342 C   0  0  0  0  0  0  0  0  0  0  0  0
   -3.0935   -1.9569    1.0379 O   0  0  0  0  0  0  0  0  0  0  0  0
   -0.4872   -2.6058    2.7012 O   0  0  0  0  0  0  0  0  0  0  0  0
    0.3141   -2.8889    0.1450 O   0  0  0  0  0  0  0  0  0  0  0  0
   -0.8008   -0.4359    0.9712 O   0  0  0  0  0  0  0  0  0  0  0  0
    1.9029   -1.1583    1.4694 O   0  0  0  0  0  0  0  0  0  0  0  0
   -2.3227   -0.1139    3.0248 O   0  0  0  0  0  0  0  0  0  0  0  0
    1.0138    0.4416    3.5688 O   0  0  0  0  0  0  0  0  0  0  0  0
   -1.7720   -4.5879   -1.6528 O   0  0  0  0  0  0  0  0  0  0  0  0
    0.1906   -1.1892   -3.5340 O   0  0  0  0  0  0  0  0  0  0  0  0
    2.8314   -2.1702   -1.9180 O   0  0  0  0  0  0  0  0  0  0  0  0
   -2.0546   -0.2244   -1.3375 O   0  0  0  0  0  0  0  0  0  0  0  0
    0.7685   -0.3906   -1.0637 O   0  0  0  0  0  0  0  0  0  0  0  0
   -0.9000    1.6493   -2.8186 O   0  0  0  0  0  0  0  0  0  0  0  0
    2.4153    1.3575   -2.2641 O   0  0  0  0  0  0  0  0  0  0  0  0
  1  2  1  0  0  0  0
  2  3  1  0  0  0  0
  3  4  4  0  0  0  0
  4  5  4  0  0  0  0
  5  6  4  0  0  0  0
  6  7  1  0  0  0  0
  7  8  1  0  0  0  0
  8  9  4  0  0  0  0
  9 10  4  0  0  0  0
 10 11  4  0  0  0  0
 11 12  1  0  0  0  0
 12 13  4  0  0  0  0
 13 14  2  0  0  0  0
 13 15  1  0  0  0  0
 15 16  1  0  0  0  0
 16 17  2  0  0  0  0
 16 18  4  0  0  0  0
 18 19  1  0  0  0  0
 19 20  4  0  0  0  0
 20 21  4  0  0  0  0
 21 22  4  0  0  0  0
 22 23  1  0  0  0  0
 22 24  4  0  0  0  0
 19 25  4  0  0  0  0
 24 25  4  0  0  0  0
 15 26  1  0  0  0  0
 15 27  1  0  0  0  0
 26 27  1  0  0  0  0
 11 28  4  0  0  0  0
  8 29  4  0  0  0  0
 28 29  4  0  0  0  0
 29 30  1  0  0  0  0
  6 31  4  0  0  0  0
 31 32  4  0  0  0  0
 32 33  4  0  0  0  0
  5 34  4  0  0  0  0
 33 34  4  0  0  0  0
 34 35  4  0  0  0  0
  3 36  4  0  0  0  0
 35 36  4  0  0  0  0
 36 37  1  0  0  0  0
 37 38  1  0  0  0  0
  1 39  1  0  0  0  0
  1 40  1  0  0  0  0
  1 41  1  0  0  0  0
  4 42  1  0  0  0  0
  9 43  1  0  0  0  0
 10 44  1  0  0  0  0
 12 45  1  0  0  0  0
 18 46  1  0  0  0  0
 20 47  1  0  0  0  0
 21 48  1  0  0  0  0
 24 49  1  0  0  0  0
 25 50  1  0  0  0  0
 26 51  1  0  0  0  0
 26 52  1  0  0  0  0
 27 53  1  0  0  0  0
 27 54  1  0  0  0  0
 28 55  1  0  0  0  0
 31 56  1  0  0  0  0
 32 57  1  0  0  0  0
 35 58  1  0  0  0  0
 38 59  1  0  0  0  0
 38 60  1  0  0  0  0
 38 61  1  0  0  0  0
 62 68  1  0  0  0  0
 68 69  1  0  0  0  0
 64 70  1  0  0  0  0
 65 74  1  0  0  0  0
 72 75  1  0  0  0  0
 71 77  1  0  0  0  0
 74 77  3  0  0  0  0
 66 78  1  0  0  0  0
 75 78  3  0  0  0  0
 71 79  1  0  0  0  0
 76 79  2  0  0  0  0
 66 80  1  0  0  0  0
 72 80  1  0  0  0  0
 76 80  2  0  0  0  0
 62 81  1  0  0  0  0
 65 81  1  0  0  0  0
 62 82  1  0  0  0  0
 63 82  1  0  0  0  0
 63 83  1  0  0  0  0
 64 83  1  0  0  0  0
 63 84  1  0  0  0  0
 65 84  1  0  0  0  0
 63 85  1  0  0  0  0
 66 85  1  0  0  0  0
 65 86  1  0  0  0  0
 67 86  1  0  0  0  0
 66 87  1  0  0  0  0
 67 87  1  0  0  0  0
 68 88  2  0  0  0  0
 69 89  1  0  0  0  0
 70 89  1  0  0  0  0
 64 90  1  0  0  0  0
 70 90  1  0  0  0  0
 69 91  1  0  0  0  0
 71 91  1  0  0  0  0
 69 92  1  0  0  0  0
 72 92  1  0  0  0  0
 71 93  1  0  0  0  0
 73 93  1  0  0  0  0
 72 94  1  0  0  0  0
 73 94  1  0  0  0  0
M  END
