 xtb: 6.7.1pre (5071a88)
          08312620373D

 94107  0     0  0            999 V2000
   -8.8845   -2.0005    8.0432 C   0  0  0  0  0  0  0  0  0  0  0  0
   -8.4067   -0.8902    7.2968 O   0  0  0  0  0  0  0  0  0  0  0  0
   -7.1934   -1.0209    6.6665 C   0  0  0  0  0  0  0  0  0  0  0  0
   -6.4102   -2.1809    6.6908 C   0  0  0  0  0  0  0  0  0  0  0  0
   -5.1904   -2.2591    6.0333 C   0  0  0  0  0  0  0  0  0  0  0  0
   -4.4970   -3.4099    6.0984 N   0  0  0  0  0  0  0  0  0  0  0  0
   -3.3159   -3.4863    5.4494 C   0  0  0  0  0  0  0  0  0  0  0  0
   -2.7731   -2.4512    4.7200 C   0  0  0  0  0  0  0  0  0  0  0  0
   -3.4860   -1.2568    4.6720 C   0  0  0  0  0  0  0  0  0  0  0  0
   -3.0279   -0.1921    3.9191 O   0  0  0  0  0  0  0  0  0  0  0  0
   -1.7343    0.2175    4.1424 C   0  0  0  0  0  0  0  0  0  0  0  0
   -0.9224    0.3911    3.0239 C   0  0  0  0  0  0  0  0  0  0  0  0
    0.3941    0.8348    3.1833 C   0  0  0  0  0  0  0  0  0  0  0  0
    0.9055    1.1221    4.4576 C   0  0  0  0  0  0  0  0  0  0  0  0
    2.2410    1.5629    4.5274 N   0  0  0  0  0  0  0  0  0  0  0  0
    2.9734    1.8419    5.6615 C   0  0  0  0  0  0  0  0  0  0  0  0
    2.6255    1.7368    6.8284 O   0  0  0  0  0  0  0  0  0  0  0  0
    4.3682    2.3011    5.3640 C   0  0  0  0  0  0  0  0  0  0  0  0
    5.3379    1.2136    5.0156 C   0  0  0  0  0  0  0  0  0  0  0  0
    5.5026    0.9382    3.8358 O   0  0  0  0  0  0  0  0  0  0  0  0
    5.9159    0.6247    6.1189 N   0  0  0  0  0  0  0  0  0  0  0  0
    6.8684   -0.4119    6.1382 C   0  0  0  0  0  0  0  0  0  0  0  0
    7.4309   -0.9744    4.9882 C   0  0  0  0  0  0  0  0  0  0  0  0
    8.3755   -2.0005    5.0929 C   0  0  0  0  0  0  0  0  0  0  0  0
    8.7563   -2.4612    6.3460 C   0  0  0  0  0  0  0  0  0  0  0  0
    9.6610   -3.4436    6.4436 F   0  0  0  0  0  0  0  0  0  0  0  0
    8.2108   -1.9148    7.4995 C   0  0  0  0  0  0  0  0  0  0  0  0
    7.2674   -0.8896    7.3955 C   0  0  0  0  0  0  0  0  0  0  0  0
    4.8989    3.5256    6.1109 C   0  0  0  0  0  0  0  0  0  0  0  0
    4.5329    3.6529    4.6666 C   0  0  0  0  0  0  0  0  0  0  0  0
    0.0763    0.9717    5.5702 C   0  0  0  0  0  0  0  0  0  0  0  0
   -1.2363    0.5298    5.4072 C   0  0  0  0  0  0  0  0  0  0  0  0
   -2.0175    0.4284    6.4922 F   0  0  0  0  0  0  0  0  0  0  0  0
   -4.7314   -1.1360    5.3212 C   0  0  0  0  0  0  0  0  0  0  0  0
   -5.5152    0.0397    5.2919 C   0  0  0  0  0  0  0  0  0  0  0  0
   -6.7395    0.1048    5.9602 C   0  0  0  0  0  0  0  0  0  0  0  0
   -7.5586    1.2050    5.9796 O   0  0  0  0  0  0  0  0  0  0  0  0
   -7.0873    2.3897    5.3536 C   0  0  0  0  0  0  0  0  0  0  0  0
   -9.8466   -1.7189    8.4821 H   0  0  0  0  0  0  0  0  0  0  0  0
   -9.0561   -2.8668    7.3959 H   0  0  0  0  0  0  0  0  0  0  0  0
   -8.2043   -2.2470    8.8650 H   0  0  0  0  0  0  0  0  0  0  0  0
   -6.7324   -3.0671    7.2276 H   0  0  0  0  0  0  0  0  0  0  0  0
   -2.8056   -4.4418    5.5320 H   0  0  0  0  0  0  0  0  0  0  0  0
   -1.8303   -2.5799    4.2033 H   0  0  0  0  0  0  0  0  0  0  0  0
   -1.3088    0.1770    2.0308 H   0  0  0  0  0  0  0  0  0  0  0  0
    1.0128    0.9517    2.2960 H   0  0  0  0  0  0  0  0  0  0  0  0
    2.7418    1.6387    3.6472 H   0  0  0  0  0  0  0  0  0  0  0  0
    5.5861    0.9503    7.0216 H   0  0  0  0  0  0  0  0  0  0  0  0
    7.1593   -0.6360    3.9932 H   0  0  0  0  0  0  0  0  0  0  0  0
    8.8138   -2.4392    4.2020 H   0  0  0  0  0  0  0  0  0  0  0  0
    8.5208   -2.2889    8.4700 H   0  0  0  0  0  0  0  0  0  0  0  0
    6.8488   -0.4747    8.3091 H   0  0  0  0  0  0  0  0  0  0  0  0
    4.2520    3.9960    6.8445 H   0  0  0  0  0  0  0  0  0  0  0  0
    5.9519    3.5670    6.3671 H   0  0  0  0  0  0  0  0  0  0  0  0
    3.6446    4.2249    4.4216 H   0  0  0  0  0  0  0  0  0  0  0  0
    5.3357    3.7605    3.9443 H   0  0  0  0  0  0  0  0  0  0  0  0
    0.4064    1.1970    6.5781 H   0  0  0  0  0  0  0  0  0  0  0  0
   -5.1397    0.8941    4.7382 H   0  0  0  0  0  0  0  0  0  0  0  0
   -7.8403    3.1695    5.5037 H   0  0  0  0  0  0  0  0  0  0  0  0
   -6.1547    2.7363    5.8111 H   0  0  0  0  0  0  0  0  0  0  0  0
   -6.9702    2.2450    4.2747 H   0  0  0  0  0  0  0  0  0  0  0  0
   -3.0000   -2.6000    1.2500 Ti  0  0  0  0  0  0  0  0  0  0  0  0
    0.0000   -2.6000    1.2500 Ti  0  0  0  0  0  0  0  0  0  0  0  0
    3.0000   -2.6000    1.2500 Ti  0  0  0  0  0  0  0  0  0  0  0  0
   -1.5000    0.0000    1.2500 Ti  0  0  0  0  0  0  0  0  0  0  0  0
    1.5000    0.0000    1.2500 Ti  0  0  0  0  0  0  0  0  0  0  0  0
    0.0000    2.6000    1.2500 Ti  0  0  0  0  0  0  0  0  0  0  0  0
   -3.0000   -2.6000   -1.2500 Ti  0  0  0  0  0  0  0  0  0  0  0  0
    0.0000   -2.6000   -1.2500 Ti  0  0  0  0  0  0  0  0  0  0  0  0
    3.0000   -2.6000   -1.2500 Ti  0  0  0  0  0  0  0  0  0  0  0  0
   -1.5000    0.0000   -1.2500 Ti  0  0  0  0  0  0  0  0  0  0  0  0
    1.5000    0.0000   -1.2500 Ti  0  0  0  0  0  0  0  0  0  0  0  0
    0.0000    2.6000   -1.2500 Ti  0  0  0  0  0  0  0  0  0  0  0  0
   -1.5000   -1.3000    0.0000 C   0  0  0  0  0  0  0  0  0  0  0  0
    1.5000   -1.3000    0.0000 C   0  0  0  0  0  0  0  0  0  0  0  0
    0.0000    1.3000    0.0000 C   0  0  0  0  0  0  0  0  0  0  0  0
   -3.0000    0.0000    0.0000 C   0  0  0  0  0  0  0  0  0  0  0  0
    3.0000    0.0000    0.0000 C   0  0  0  0  0  0  0  0  0  0  0  0
   -1.5000    2.6000    0.0000 C   0  0  0  0  0  0  0  0  0  0  0  0
    1.5000    2.6000    0.0000 C   0  0  0  0  0  0  0  0  0  0  0  0
   -3.0000   -2.6000    2.4500 O   0  0  0  0  0  0  0  0  0  0  0  0
    0.0000   -2.6000    2.4500 O   0  0  0  0  0  0  0  0  0  0  0  0
    3.0000   -2.6000    2.4500 O   0  0  0  0  0  0  0  0  0  0  0  0
   -1.5000    0.0000    2.4500 O   0  0  0  0  0  0  0  0  0  0  0  0
    1.5000    0.0000    2.4500 O   0  0  0  0  0  0  0  0  0  0  0  0
   -1.5000    2.6000    2.4500 O   0  0  0  0  0  0  0  0  0  0  0  0
    1.5000    2.6000    2.4500 O   0  0  0  0  0  0  0  0  0  0  0  0
   -3.0000   -2.6000   -2.4500 O   0  0  0  0  0  0  0  0  0  0  0  0
    0.0000   -2.6000   -2.4500 O   0  0  0  0  0  0  0  0  0  0  0  0
    3.0000   -2.6000   -2.4500 O   0  0  0  0  0  0  0  0  0  0  0  0
   -1.5000    0.0000   -2.4500 O   0  0  0  0  0  0  0  0  0  0  0  0
    1.5000    0.0000   -2.4500 O   0  0  0  0  0  0  0  0  0  0  0  0
   -1.5000    2.6000   -2.4500 O   0  0  0  0  0  0  0  0  0  0  0  0
    1.5000    2.6000   -2.4500 O   0  0  0  0  0  0  0  0  0  0  0  0
  1  2  1  0  0  0  0
  2  3  1  0  0  0  0
  3  4  4  0  0  0  0
  4  5  4  0  0  0  0
  5  6  4  0  0  0  0
  6  7  4  0  0  0  0
  7  8  4  0  0  0  0
  8  9  4  0  0  0  0
  9 10  1  0  0  0  0
 10 11  1  0  0  0  0
 11 12  1  0  0  0  0
 12 13  1  0  0  0  0
 13 14  1  0  0  0  0
 14 15  1  0  0  0  0
 15 16  1  0  0  0  0
 16 17  2  0  0  0  0
 16 18  1  0  0  0  0
 18 19  1  0  0  0  0
 19 20  2  0  0  0  0
 19 21  4  0  0  0  0
 21 22  1  0  0  0  0
 22 23  4  0  0  0  0
 23 24  4  0  0  0  0
 24 25  4  0  0  0  0
 25 26  1  0  0  0  0
 25 27  4  0  0  0  0
 22 28  4  0  0  0  0
 27 28  4  0  0  0  0
 18 29  1  0  0  0  0
 18 30  1  0  0  0  0
 29 30  1  0  0  0  0
 14 31  4  0  0  0  0
 11 32  4  0  0  0  0
 31 32  4  0  0  0  0
 32 33  1  0  0  0  0
  5 34  1  0  0  0  0
  9 34  4  0  0  0  0
 34 35  4  0  0  0  0
  3 36  4  0  0  0  0
 35 36  4  0  0  0  0
 36 37  1  0  0  0  0
 37 38  1  0  0  0  0
  1 39  1  0  0  0  0
  1 40  1  0  0  0  0
  1 41  1  0  0  0  0
  4 42  1  0  0  0  0
  7 43  1  0  0  0  0
  8 44  1  0  0  0  0
 13 46  1  0  0  0  0
 15 47  1  0  0  0  0
 21 48  1  0  0  0  0
 23 49  1  0  0  0  0
 24 50  1  0  0  0  0
 27 51  1  0  0  0  0
 28 52  1  0  0  0  0
 29 53  1  0  0  0  0
 29 54  1  0  0  0  0
 30 55  1  0  0  0  0
 30 56  1  0  0  0  0
 31 57  1  0  0  0  0
 35 58  1  0  0  0  0
 38 59  1  0  0  0  0
 38 60  1  0  0  0  0
 38 61  1  0  0  0  0
 62 63  1  0  0  0  0
 62 68  1  0  0  0  0
 63 69  1  0  0  0  0
 68 69  1  0  0  0  0
 64 70  1  0  0  0  0
 69 70  1  0  0  0  0
 71 74  1  0  0  0  0
 66 75  1  0  0  0  0
 72 75  1  0  0  0  0
 67 76  1  0  0  0  0
 73 76  1  0  0  0  0
 71 77  1  0  0  0  0
 74 77  1  0  0  0  0
 66 78  1  0  0  0  0
 72 78  1  0  0  0  0
 75 78  1  0  0  0  0
 67 79  1  0  0  0  0
 73 79  1  0  0  0  0
 76 79  1  0  0  0  0
 67 80  1  0  0  0  0
 73 80  1  0  0  0  0
 76 80  1  0  0  0  0
 62 81  2  0  0  0  0
 63 82  2  0  0  0  0
 64 83  2  0  0  0  0
 12 84  2  0  0  0  0
 45 84  1  0  0  0  0
 74 84  1  0  0  0  0
 77 84  1  0  0  0  0
 13 85  1  0  0  0  0
 66 85  1  0  0  0  0
 67 86  2  0  0  0  0
 79 86  1  0  0  0  0
 67 87  1  0  0  0  0
 68 88  2  0  0  0  0
 69 89  2  0  0  0  0
 70 90  2  0  0  0  0
 71 91  2  0  0  0  0
 72 92  2  0  0  0  0
 73 93  1  0  0  0  0
 79 93  1  0  0  0  0
 73 94  1  0  0  0  0
 80 94  1  0  0  0  0
M  END
