 xtb: 6.7.1pre (5071a88)
          08312621193D

 94106  0     0  0            999 V2000
   -8.8845   -2.0005   13.1936 C   0  0  0  0  0  0  0  0  0  0  0  0
   -8.4067   -0.8902   12.4472 O   0  0  0  0  0  0  0  0  0  0  0  0
   -7.1934   -1.0209   11.8170 C   0  0  0  0  0  0  0  0  0  0  0  0
   -6.4102   -2.1809   11.8412 C   0  0  0  0  0  0  0  0  0  0  0  0
   -5.1904   -2.2591   11.1838 C   0  0  0  0  0  0  0  0  0  0  0  0
   -4.4970   -3.4099   11.2488 N   0  0  0  0  0  0  0  0  0  0  0  0
   -3.3159   -3.4863   10.5999 C   0  0  0  0  0  0  0  0  0  0  0  0
   -2.7731   -2.4512    9.8705 C   0  0  0  0  0  0  0  0  0  0  0  0
   -3.4860   -1.2568    9.8225 C   0  0  0  0  0  0  0  0  0  0  0  0
   -3.0279   -0.1921    9.0696 O   0  0  0  0  0  0  0  0  0  0  0  0
   -1.7343    0.2175    9.2929 C   0  0  0  0  0  0  0  0  0  0  0  0
   -0.9224    0.3911    8.1744 C   0  0  0  0  0  0  0  0  0  0  0  0
    0.3941    0.8348    8.3337 C   0  0  0  0  0  0  0  0  0  0  0  0
    0.9055    1.1221    9.6081 C   0  0  0  0  0  0  0  0  0  0  0  0
    2.2410    1.5629    9.6778 N   0  0  0  0  0  0  0  0  0  0  0  0
    2.9734    1.8419   10.8119 C   0  0  0  0  0  0  0  0  0  0  0  0
    2.6255    1.7368   11.9788 O   0  0  0  0  0  0  0  0  0  0  0  0
    4.3682    2.3011   10.5145 C   0  0  0  0  0  0  0  0  0  0  0  0
    5.3379    1.2136   10.1660 C   0  0  0  0  0  0  0  0  0  0  0  0
    5.5026    0.9382    8.9863 O   0  0  0  0  0  0  0  0  0  0  0  0
    5.9159    0.6247   11.2694 N   0  0  0  0  0  0  0  0  0  0  0  0
    6.8684   -0.4119   11.2886 C   0  0  0  0  0  0  0  0  0  0  0  0
    7.4309   -0.9744   10.1386 C   0  0  0  0  0  0  0  0  0  0  0  0
    8.3755   -2.0005   10.2434 C   0  0  0  0  0  0  0  0  0  0  0  0
    8.7563   -2.4612   11.4965 C   0  0  0  0  0  0  0  0  0  0  0  0
    9.6610   -3.4436   11.5940 F   0  0  0  0  0  0  0  0  0  0  0  0
    8.2108   -1.9148   12.6500 C   0  0  0  0  0  0  0  0  0  0  0  0
    7.2674   -0.8896   12.5459 C   0  0  0  0  0  0  0  0  0  0  0  0
    4.8989    3.5256   11.2613 C   0  0  0  0  0  0  0  0  0  0  0  0
    4.5329    3.6529    9.8171 C   0  0  0  0  0  0  0  0  0  0  0  0
    0.0763    0.9717   10.7207 C   0  0  0  0  0  0  0  0  0  0  0  0
   -1.2363    0.5298   10.5576 C   0  0  0  0  0  0  0  0  0  0  0  0
   -2.0175    0.4284   11.6427 F   0  0  0  0  0  0  0  0  0  0  0  0
   -4.7314   -1.1360   10.4716 C   0  0  0  0  0  0  0  0  0  0  0  0
   -5.5152    0.0397   10.4423 C   0  0  0  0  0  0  0  0  0  0  0  0
   -6.7395    0.1048   11.1107 C   0  0  0  0  0  0  0  0  0  0  0  0
   -7.5586    1.2050   11.1300 O   0  0  0  0  0  0  0  0  0  0  0  0
   -7.0873    2.3897   10.5040 C   0  0  0  0  0  0  0  0  0  0  0  0
   -9.8466   -1.7189   13.6325 H   0  0  0  0  0  0  0  0  0  0  0  0
   -9.0561   -2.8668   12.5464 H   0  0  0  0  0  0  0  0  0  0  0  0
   -8.2043   -2.2470   14.0155 H   0  0  0  0  0  0  0  0  0  0  0  0
   -6.7324   -3.0671   12.3781 H   0  0  0  0  0  0  0  0  0  0  0  0
   -2.8056   -4.4418   10.6825 H   0  0  0  0  0  0  0  0  0  0  0  0
   -1.8303   -2.5799    9.3537 H   0  0  0  0  0  0  0  0  0  0  0  0
   -1.3088    0.1770    7.1812 H   0  0  0  0  0  0  0  0  0  0  0  0
    1.0128    0.9517    7.4464 H   0  0  0  0  0  0  0  0  0  0  0  0
    2.7418    1.6387    8.7976 H   0  0  0  0  0  0  0  0  0  0  0  0
    5.5861    0.9503   12.1721 H   0  0  0  0  0  0  0  0  0  0  0  0
    7.1593   -0.6360    9.1436 H   0  0  0  0  0  0  0  0  0  0  0  0
    8.8138   -2.4392    9.3525 H   0  0  0  0  0  0  0  0  0  0  0  0
    8.5208   -2.2889   13.6204 H   0  0  0  0  0  0  0  0  0  0  0  0
    6.8488   -0.4747   13.4596 H   0  0  0  0  0  0  0  0  0  0  0  0
    4.2520    3.9960   11.9949 H   0  0  0  0  0  0  0  0  0  0  0  0
    5.9519    3.5670   11.5175 H   0  0  0  0  0  0  0  0  0  0  0  0
    3.6446    4.2249    9.5720 H   0  0  0  0  0  0  0  0  0  0  0  0
    5.3357    3.7605    9.0948 H   0  0  0  0  0  0  0  0  0  0  0  0
    0.4064    1.1970   11.7285 H   0  0  0  0  0  0  0  0  0  0  0  0
   -5.1397    0.8941    9.8886 H   0  0  0  0  0  0  0  0  0  0  0  0
   -7.8403    3.1695   10.6541 H   0  0  0  0  0  0  0  0  0  0  0  0
   -6.1547    2.7363   10.9615 H   0  0  0  0  0  0  0  0  0  0  0  0
   -6.9702    2.2450    9.4251 H   0  0  0  0  0  0  0  0  0  0  0  0
   -2.1419   -3.0088    2.1197 Ti  0  0  0  0  0  0  0  0  0  0  0  0
    0.2890   -1.6948    1.4324 Ti  0  0  0  0  0  0  0  0  0  0  0  0
    1.9031   -3.0677   -0.7293 Ti  0  0  0  0  0  0  0  0  0  0  0  0
   -2.5215   -0.2519    1.3037 Ti  0  0  0  0  0  0  0  0  0  0  0  0
    2.1420    0.4995    2.2044 Ti  0  0  0  0  0  0  0  0  0  0  0  0
   -0.6814    0.1896    3.6812 Ti  0  0  0  0  0  0  0  0  0  0  0  0
   -2.0368   -3.0777   -1.2005 Ti  0  0  0  0  0  0  0  0  0  0  0  0
   -0.6053   -0.7709   -2.0351 Ti  0  0  0  0  0  0  0  0  0  0  0  0
    1.9455   -1.5873   -3.4124 Ti  0  0  0  0  0  0  0  0  0  0  0  0
   -1.8782    1.7466   -1.2400 Ti  0  0  0  0  0  0  0  0  0  0  0  0
    2.4125    0.4542   -0.7742 Ti  0  0  0  0  0  0  0  0  0  0  0  0
    0.8177    1.8385   -2.9400 Ti  0  0  0  0  0  0  0  0  0  0  0  0
   -3.6784    1.2814    0.6007 C   0  0  0  0  0  0  0  0  0  0  0  0
    4.1282    0.4828    0.3873 C   0  0  0  0  0  0  0  0  0  0  0  0
    0.4555    2.2672    0.3497 C   0  0  0  0  0  0  0  0  0  0  0  0
   -3.6667    2.1188   -0.3139 C   0  0  0  0  0  0  0  0  0  0  0  0
    4.1160    0.6322    1.6214 C   0  0  0  0  0  0  0  0  0  0  0  0
   -0.6352    2.7410   -0.1189 C   0  0  0  0  0  0  0  0  0  0  0  0
    1.6301    1.7810    0.7342 C   0  0  0  0  0  0  0  0  0  0  0  0
   -3.0935   -1.9569    1.0379 O   0  0  0  0  0  0  0  0  0  0  0  0
   -0.4872   -2.6058    2.7012 O   0  0  0  0  0  0  0  0  0  0  0  0
    0.3141   -2.8889    0.1450 O   0  0  0  0  0  0  0  0  0  0  0  0
   -0.8008   -0.4359    0.9712 O   0  0  0  0  0  0  0  0  0  0  0  0
    1.9029   -1.1583    1.4694 O   0  0  0  0  0  0  0  0  0  0  0  0
   -2.3227   -0.1139    3.0248 O   0  0  0  0  0  0  0  0  0  0  0  0
    1.0138    0.4416    3.5688 O   0  0  0  0  0  0  0  0  0  0  0  0
   -1.7720   -4.5879   -1.6528 O   0  0  0  0  0  0  0  0  0  0  0  0
    0.1906   -1.1892   -3.5340 O   0  0  0  0  0  0  0  0  0  0  0  0
    2.8314   -2.1702   -1.9180 O   0  0  0  0  0  0  0  0  0  0  0  0
   -2.0546   -0.2244   -1.3375 O   0  0  0  0  0  0  0  0  0  0  0  0
    0.7685   -0.3906   -1.0637 O   0  0  0  0  0  0  0  0  0  0  0  0
   -0.9000    1.6493   -2.8186 O   0  0  0  0  0  0  0  0  0  0  0  0
    2.4153    1.3575   -2.2641 O   0  0  0  0  0  0  0  0  0  0  0  0
  1  2  1  0  0  0  0
  2  3  1  0  0  0  0
  3  4  4  0  0  0  0
  4  5  4  0  0  0  0
  5  6  4  0  0  0  0
  6  7  4  0  0  0  0
  7  8  4  0  0  0  0
  8  9  4  0  0  0  0
  9 10  1  0  0  0  0
 10 11  1  0  0  0  0
 11 12  4  0  0  0  0
 12 13  4  0  0  0  0
 13 14  4  0  0  0  0
 14 15  1  0  0  0  0
 15 16  1  0  0  0  0
 16 17  2  0  0  0  0
 16 18  1  0  0  0  0
 18 19  1  0  0  0  0
 19 20  2  0  0  0  0
 19 21  4  0  0  0  0
 21 22  1  0  0  0  0
 22 23  4  0  0  0  0
 23 24  4  0  0  0  0
 24 25  4  0  0  0  0
 25 26  1  0  0  0  0
 25 27  4  0  0  0  0
 22 28  4  0  0  0  0
 27 28  4  0  0  0  0
 18 29  1  0  0  0  0
 18 30  1  0  0  0  0
 29 30  1  0  0  0  0
 14 31  4  0  0  0  0
 11 32  4  0  0  0  0
 31 32  4  0  0  0  0
 32 33  1  0  0  0  0
  5 34  4  0  0  0  0
  9 34  4  0  0  0  0
 34 35  4  0  0  0  0
  3 36  4  0  0  0  0
 35 36  4  0  0  0  0
 36 37  1  0  0  0  0
 37 38  1  0  0  0  0
  1 39  1  0  0  0  0
  1 40  1  0  0  0  0
  1 41  1  0  0  0  0
  4 42  1  0  0  0  0
  7 43  1  0  0  0  0
  8 44  1  0  0  0  0
 12 45  1  0  0  0  0
 13 46  1  0  0  0  0
 15 47  1  0  0  0  0
 21 48  1  0  0  0  0
 23 49  1  0  0  0  0
 24 50  1  0  0  0  0
 27 51  1  0  0  0  0
 28 52  1  0  0  0  0
 29 53  1  0  0  0  0
 29 54  1  0  0  0  0
 30 55  1  0  0  0  0
 30 56  1  0  0  0  0
 31 57  1  0  0  0  0
 35 58  1  0  0  0  0
 38 59  1  0  0  0  0
 38 60  1  0  0  0  0
 38 61  1  0  0  0  0
 62 68  1  0  0  0  0
 68 69  1  0  0  0  0
 64 70  1  0  0  0  0
 65 74  1  0  0  0  0
 72 75  1  0  0  0  0
 71 77  1  0  0  0  0
 74 77  3  0  0  0  0
 66 78  1  0  0  0  0
 75 78  3  0  0  0  0
 71 79  1  0  0  0  0
 76 79  2  0  0  0  0
 66 80  1  0  0  0  0
 72 80  1  0  0  0  0
 76 80  2  0  0  0  0
 62 81  1  0  0  0  0
 65 81  1  0  0  0  0
 62 82  1  0  0  0  0
 63 82  1  0  0  0  0
 63 83  1  0  0  0  0
 64 83  1  0  0  0  0
 63 84  1  0  0  0  0
 65 84  1  0  0  0  0
 63 85  1  0  0  0  0
 66 85  1  0  0  0  0
 65 86  1  0  0  0  0
 67 86  1  0  0  0  0
 66 87  1  0  0  0  0
 67 87  1  0  0  0  0
 68 88  2  0  0  0  0
 69 89  1  0  0  0  0
 70 89  1  0  0  0  0
 64 90  1  0  0  0  0
 70 90  1  0  0  0  0
 69 91  1  0  0  0  0
 71 91  1  0  0  0  0
 69 92  1  0  0  0  0
 72 92  1  0  0  0  0
 71 93  1  0  0  0  0
 73 93  1  0  0  0  0
 72 94  1  0  0  0  0
 73 94  1  0  0  0  0
M  END
