 xtb: 6.7.1pre (5071a88)
          08312620383D

 93108  0     0  0            999 V2000
   -3.4566   -4.9160    4.3023 C   0  0  0  0  0  0  0  0  0  0  0  0
   -3.1210   -3.5655    4.5882 O   0  0  0  0  0  0  0  0  0  0  0  0
   -1.7896   -3.2421    4.6726 C   0  0  0  0  0  0  0  0  0  0  0  0
   -0.7419   -4.1626    4.5560 C   0  0  0  0  0  0  0  0  0  0  0  0
    0.5898   -3.7800    4.6528 C   0  0  0  0  0  0  0  0  0  0  0  0
    1.5288   -4.7231    4.5393 N   0  0  0  0  0  0  0  0  0  0  0  0
    2.7996   -4.3229    4.6457 C   0  0  0  0  0  0  0  0  0  0  0  0
    3.2181   -3.0713    4.8454 N   0  0  0  0  0  0  0  0  0  0  0  0
    2.2692   -2.1224    4.9408 C   0  0  0  0  0  0  0  0  0  0  0  0
    2.6580   -0.7690    5.1186 N   0  0  0  0  0  0  0  0  0  0  0  0
    3.9447   -0.2527    5.4237 C   0  0  0  0  0  0  0  0  0  0  0  0
    4.8637   -0.9382    6.2304 C   0  0  0  0  0  0  0  0  0  0  0  0
    6.1094   -0.3904    6.5765 C   0  0  0  0  0  0  0  0  0  0  0  0
    6.3911    0.8910    6.1006 C   0  0  0  0  0  0  0  0  0  0  0  0
    7.4813    1.7110    6.2429 N   0  0  0  0  0  0  0  0  0  0  0  0
    7.2301    2.8833    5.5739 C   0  0  0  0  0  0  0  0  0  0  0  0
    8.2102    3.9931    5.5286 C   0  0  0  0  0  0  0  0  0  0  0  0
    6.0400    2.8578    5.0120 N   0  0  0  0  0  0  0  0  0  0  0  0
    5.5028    1.6271    5.3237 C   0  0  0  0  0  0  0  0  0  0  0  0
    4.2650    1.0510    4.9940 C   0  0  0  0  0  0  0  0  0  0  0  0
    3.3689    1.7285    4.2547 F   0  0  0  0  0  0  0  0  0  0  0  0
    0.8945   -2.4306    4.8653 C   0  0  0  0  0  0  0  0  0  0  0  0
   -0.1615   -1.4917    4.9977 C   0  0  0  0  0  0  0  0  0  0  0  0
   -1.4960   -1.8897    4.9037 C   0  0  0  0  0  0  0  0  0  0  0  0
   -2.5705   -1.0463    5.0134 O   0  0  0  0  0  0  0  0  0  0  0  0
   -2.3273    0.3137    5.3696 C   0  0  0  0  0  0  0  0  0  0  0  0
   -3.6719    1.0377    5.5093 C   0  0  0  0  0  0  0  0  0  0  0  0
   -3.4631    2.5400    5.7756 C   0  0  0  0  0  0  0  0  0  0  0  0
   -4.5710    3.1666    6.6320 C   0  0  0  0  0  0  0  0  0  0  0  0
   -5.8600    2.5597    6.3140 N   0  0  0  0  0  0  0  0  0  0  0  0
   -6.9706    3.2988    6.9063 C   0  0  0  0  0  0  0  0  0  0  0  0
   -5.9079    1.1396    6.6958 C   0  0  0  0  0  0  0  0  0  0  0  0
   -4.5516    0.4247    6.6039 C   0  0  0  0  0  0  0  0  0  0  0  0
   -3.1264   -5.5824    5.1058 H   0  0  0  0  0  0  0  0  0  0  0  0
   -3.0502   -5.2289    3.3348 H   0  0  0  0  0  0  0  0  0  0  0  0
   -4.5471   -4.9839    4.2419 H   0  0  0  0  0  0  0  0  0  0  0  0
   -0.9382   -5.2170    4.3884 H   0  0  0  0  0  0  0  0  0  0  0  0
    3.5637   -5.0878    4.5599 H   0  0  0  0  0  0  0  0  0  0  0  0
    2.2205   -0.1917    4.4015 H   0  0  0  0  0  0  0  0  0  0  0  0
    4.6154   -1.9261    6.6135 H   0  0  0  0  0  0  0  0  0  0  0  0
    6.8094   -0.9442    7.1933 H   0  0  0  0  0  0  0  0  0  0  0  0
    8.3243    1.4923    6.7538 H   0  0  0  0  0  0  0  0  0  0  0  0
    8.4308    4.3536    6.5380 H   0  0  0  0  0  0  0  0  0  0  0  0
    7.8162    4.8314    4.9457 H   0  0  0  0  0  0  0  0  0  0  0  0
    9.1442    3.6634    5.0633 H   0  0  0  0  0  0  0  0  0  0  0  0
    0.0879   -0.4527    5.1854 H   0  0  0  0  0  0  0  0  0  0  0  0
   -1.7397    0.8003    4.5814 H   0  0  0  0  0  0  0  0  0  0  0  0
   -1.7827    0.3619    6.3209 H   0  0  0  0  0  0  0  0  0  0  0  0
   -4.2135    0.9227    4.5594 H   0  0  0  0  0  0  0  0  0  0  0  0
   -3.4076    3.0565    4.8086 H   0  0  0  0  0  0  0  0  0  0  0  0
   -2.5026    2.7187    6.2749 H   0  0  0  0  0  0  0  0  0  0  0  0
   -4.3375    3.0492    7.6985 H   0  0  0  0  0  0  0  0  0  0  0  0
   -4.5852    4.2447    6.4291 H   0  0  0  0  0  0  0  0  0  0  0  0
   -6.9867    4.3303    6.5375 H   0  0  0  0  0  0  0  0  0  0  0  0
   -6.9116    3.3257    8.0004 H   0  0  0  0  0  0  0  0  0  0  0  0
   -7.9281    2.8484    6.6220 H   0  0  0  0  0  0  0  0  0  0  0  0
   -6.6218    0.6365    6.0324 H   0  0  0  0  0  0  0  0  0  0  0  0
   -6.2819    1.0112    7.7200 H   0  0  0  0  0  0  0  0  0  0  0  0
   -4.0341    0.5013    7.5694 H   0  0  0  0  0  0  0  0  0  0  0  0
   -4.7221   -0.6426    6.4215 H   0  0  0  0  0  0  0  0  0  0  0  0
   -3.0000   -2.6000    1.2500 Ti  0  0  0  0  0  0  0  0  0  0  0  0
    0.0000   -2.6000    1.2500 Ti  0  0  0  0  0  0  0  0  0  0  0  0
    3.0000   -2.6000    1.2500 Ti  0  0  0  0  0  0  0  0  0  0  0  0
   -1.5000    0.0000    1.2500 Ti  0  0  0  0  0  0  0  0  0  0  0  0
    1.5000    0.0000    1.2500 Ti  0  0  0  0  0  0  0  0  0  0  0  0
    0.0000    2.6000    1.2500 Ti  0  0  0  0  0  0  0  0  0  0  0  0
   -3.0000   -2.6000   -1.2500 Ti  0  0  0  0  0  0  0  0  0  0  0  0
    0.0000   -2.6000   -1.2500 Ti  0  0  0  0  0  0  0  0  0  0  0  0
    3.0000   -2.6000   -1.2500 Ti  0  0  0  0  0  0  0  0  0  0  0  0
   -1.5000    0.0000   -1.2500 Ti  0  0  0  0  0  0  0  0  0  0  0  0
    1.5000    0.0000   -1.2500 Ti  0  0  0  0  0  0  0  0  0  0  0  0
    0.0000    2.6000   -1.2500 Ti  0  0  0  0  0  0  0  0  0  0  0  0
   -1.5000   -1.3000    0.0000 C   0  0  0  0  0  0  0  0  0  0  0  0
    1.5000   -1.3000    0.0000 C   0  0  0  0  0  0  0  0  0  0  0  0
    0.0000    1.3000    0.0000 C   0  0  0  0  0  0  0  0  0  0  0  0
   -3.0000    0.0000    0.0000 C   0  0  0  0  0  0  0  0  0  0  0  0
    3.0000    0.0000    0.0000 C   0  0  0  0  0  0  0  0  0  0  0  0
   -1.5000    2.6000    0.0000 C   0  0  0  0  0  0  0  0  0  0  0  0
    1.5000    2.6000    0.0000 C   0  0  0  0  0  0  0  0  0  0  0  0
   -3.0000   -2.6000    2.4500 O   0  0  0  0  0  0  0  0  0  0  0  0
    0.0000   -2.6000    2.4500 O   0  0  0  0  0  0  0  0  0  0  0  0
    3.0000   -2.6000    2.4500 O   0  0  0  0  0  0  0  0  0  0  0  0
   -1.5000    0.0000    2.4500 O   0  0  0  0  0  0  0  0  0  0  0  0
    1.5000    0.0000    2.4500 O   0  0  0  0  0  0  0  0  0  0  0  0
   -1.5000    2.6000    2.4500 O   0  0  0  0  0  0  0  0  0  0  0  0
    1.5000    2.6000    2.4500 O   0  0  0  0  0  0  0  0  0  0  0  0
   -3.0000   -2.6000   -2.4500 O   0  0  0  0  0  0  0  0  0  0  0  0
    0.0000   -2.6000   -2.4500 O   0  0  0  0  0  0  0  0  0  0  0  0
    3.0000   -2.6000   -2.4500 O   0  0  0  0  0  0  0  0  0  0  0  0
   -1.5000    0.0000   -2.4500 O   0  0  0  0  0  0  0  0  0  0  0  0
    1.5000    0.0000   -2.4500 O   0  0  0  0  0  0  0  0  0  0  0  0
   -1.5000    2.6000   -2.4500 O   0  0  0  0  0  0  0  0  0  0  0  0
    1.5000    2.6000   -2.4500 O   0  0  0  0  0  0  0  0  0  0  0  0
  1  2  1  0  0  0  0
  2  3  1  0  0  0  0
  3  4  4  0  0  0  0
  4  5  4  0  0  0  0
  5  6  4  0  0  0  0
  6  7  4  0  0  0  0
  7  8  4  0  0  0  0
  8  9  4  0  0  0  0
  9 10  1  0  0  0  0
 10 11  1  0  0  0  0
 11 12  4  0  0  0  0
 12 13  4  0  0  0  0
 13 14  4  0  0  0  0
 14 15  1  0  0  0  0
 15 16  1  0  0  0  0
 16 17  1  0  0  0  0
 16 18  2  0  0  0  0
 14 19  4  0  0  0  0
 18 19  4  0  0  0  0
 11 20  4  0  0  0  0
 19 20  4  0  0  0  0
 20 21  1  0  0  0  0
  5 22  1  0  0  0  0
  9 22  4  0  0  0  0
 22 23  4  0  0  0  0
  3 24  1  0  0  0  0
 23 24  4  0  0  0  0
 24 25  1  0  0  0  0
 25 26  1  0  0  0  0
 26 27  1  0  0  0  0
 27 28  1  0  0  0  0
 28 29  1  0  0  0  0
 29 30  1  0  0  0  0
 30 31  1  0  0  0  0
 30 32  1  0  0  0  0
 27 33  1  0  0  0  0
 32 33  1  0  0  0  0
  1 34  1  0  0  0  0
  1 35  1  0  0  0  0
  1 36  1  0  0  0  0
  4 37  1  0  0  0  0
  7 38  1  0  0  0  0
 10 39  1  0  0  0  0
 12 40  1  0  0  0  0
 13 41  1  0  0  0  0
 15 42  1  0  0  0  0
 17 43  1  0  0  0  0
 17 44  1  0  0  0  0
 17 45  1  0  0  0  0
 23 46  1  0  0  0  0
 26 47  1  0  0  0  0
 26 48  1  0  0  0  0
 27 49  1  0  0  0  0
 28 50  1  0  0  0  0
 28 51  1  0  0  0  0
 29 52  1  0  0  0  0
 29 53  1  0  0  0  0
 31 54  1  0  0  0  0
 31 55  1  0  0  0  0
 31 56  1  0  0  0  0
 32 57  1  0  0  0  0
 32 58  1  0  0  0  0
 33 59  1  0  0  0  0
 33 60  1  0  0  0  0
 62 63  1  0  0  0  0
 61 67  1  0  0  0  0
 62 68  1  0  0  0  0
 67 68  1  0  0  0  0
 63 69  1  0  0  0  0
 68 69  1  0  0  0  0
 64 73  1  0  0  0  0
 67 73  1  0  0  0  0
 70 73  1  0  0  0  0
 65 74  1  0  0  0  0
 69 74  1  0  0  0  0
 71 74  1  0  0  0  0
 66 75  1  0  0  0  0
 72 75  1  0  0  0  0
 64 76  1  0  0  0  0
 70 76  1  0  0  0  0
 73 76  1  0  0  0  0
 65 77  1  0  0  0  0
 71 77  1  0  0  0  0
 74 77  1  0  0  0  0
 66 78  1  0  0  0  0
 72 78  1  0  0  0  0
 75 78  1  0  0  0  0
 66 79  1  0  0  0  0
 72 79  1  0  0  0  0
 75 79  1  0  0  0  0
 61 80  2  0  0  0  0
 62 81  2  0  0  0  0
 63 82  2  0  0  0  0
 64 83  2  0  0  0  0
 65 84  2  0  0  0  0
 66 85  1  0  0  0  0
 78 85  1  0  0  0  0
 66 86  1  0  0  0  0
 79 86  1  0  0  0  0
 67 87  2  0  0  0  0
 68 88  2  0  0  0  0
 69 89  2  0  0  0  0
 70 90  2  0  0  0  0
 71 91  2  0  0  0  0
 72 92  1  0  0  0  0
 78 92  1  0  0  0  0
 72 93  1  0  0  0  0
 79 93  1  0  0  0  0
M  END
