 xtb: 6.7.1pre (5071a88)
          08312621563D

 87 98  0     0  0            999 V2000
    0.7230    3.3535    9.3723 C   0  0  0  0  0  0  0  0  0  0  0  0
   -0.1236    2.4703   10.0959 O   0  0  0  0  0  0  0  0  0  0  0  0
    0.3731    1.2487   10.4565 C   0  0  0  0  0  0  0  0  0  0  0  0
    1.6613    0.8013   10.1499 C   0  0  0  0  0  0  0  0  0  0  0  0
    2.1349   -0.4639   10.5959 C   0  0  0  0  0  0  0  0  0  0  0  0
    3.4186   -0.9893   10.3373 C   0  0  0  0  0  0  0  0  0  0  0  0
    4.3570   -0.1871    9.6286 N   0  0  0  0  0  0  0  0  0  0  0  0
    5.5697   -0.5927    9.0270 C   0  0  0  0  0  0  0  0  0  0  0  0
    5.7547   -1.8754    8.4901 C   0  0  0  0  0  0  0  0  0  0  0  0
    6.9426   -2.2263    7.8364 C   0  0  0  0  0  0  0  0  0  0  0  0
    7.9546   -1.2830    7.6882 C   0  0  0  0  0  0  0  0  0  0  0  0
    9.4109   -1.7159    6.8812 Cl  0  0  0  0  0  0  0  0  0  0  0  0
    7.7684    0.0034    8.1831 C   0  0  0  0  0  0  0  0  0  0  0  0
    8.7192    0.9386    8.0368 F   0  0  0  0  0  0  0  0  0  0  0  0
    6.5859    0.3535    8.8347 C   0  0  0  0  0  0  0  0  0  0  0  0
    3.7897   -2.2106   10.7611 N   0  0  0  0  0  0  0  0  0  0  0  0
    2.8913   -2.9016   11.4667 C   0  0  0  0  0  0  0  0  0  0  0  0
    1.6598   -2.4946   11.7870 N   0  0  0  0  0  0  0  0  0  0  0  0
    1.2909   -1.2880   11.3484 C   0  0  0  0  0  0  0  0  0  0  0  0
    0.0167   -0.8339   11.6483 C   0  0  0  0  0  0  0  0  0  0  0  0
   -0.4587    0.4041   11.1996 C   0  0  0  0  0  0  0  0  0  0  0  0
   -1.7375    0.6928   11.6042 O   0  0  0  0  0  0  0  0  0  0  0  0
   -2.5840    1.2505   10.5932 C   0  0  0  0  0  0  0  0  0  0  0  0
   -4.0358    0.8335   10.8802 C   0  0  0  0  0  0  0  0  0  0  0  0
   -4.2374   -0.6913   10.7738 C   0  0  0  0  0  0  0  0  0  0  0  0
   -4.8201   -1.0849    9.4175 C   0  0  0  0  0  0  0  0  0  0  0  0
   -6.1495   -0.4979    9.1999 N   0  0  0  0  0  0  0  0  0  0  0  0
   -6.5085   -0.5398    7.7849 C   0  0  0  0  0  0  0  0  0  0  0  0
   -6.3126    0.8436    9.7745 C   0  0  0  0  0  0  0  0  0  0  0  0
   -4.9942    1.5933    9.9482 C   0  0  0  0  0  0  0  0  0  0  0  0
    0.1642    4.2763    9.1890 H   0  0  0  0  0  0  0  0  0  0  0  0
    0.9939    2.9302    8.3995 H   0  0  0  0  0  0  0  0  0  0  0  0
    1.6131    3.6136    9.9544 H   0  0  0  0  0  0  0  0  0  0  0  0
    2.3257    1.4151    9.5505 H   0  0  0  0  0  0  0  0  0  0  0  0
    4.4629    0.6913   10.1273 H   0  0  0  0  0  0  0  0  0  0  0  0
    4.9689   -2.6233    8.5700 H   0  0  0  0  0  0  0  0  0  0  0  0
    7.0611   -3.2325    7.4432 H   0  0  0  0  0  0  0  0  0  0  0  0
    6.4800    1.3734    9.1909 H   0  0  0  0  0  0  0  0  0  0  0  0
    3.1899   -3.8844   11.8151 H   0  0  0  0  0  0  0  0  0  0  0  0
   -0.6398   -1.4673   12.2418 H   0  0  0  0  0  0  0  0  0  0  0  0
   -2.2951    0.9101    9.5900 H   0  0  0  0  0  0  0  0  0  0  0  0
   -2.5135    2.3429   10.6435 H   0  0  0  0  0  0  0  0  0  0  0  0
   -4.2589    1.1075   11.9206 H   0  0  0  0  0  0  0  0  0  0  0  0
   -3.3022   -1.2348   10.9470 H   0  0  0  0  0  0  0  0  0  0  0  0
   -4.9270   -1.0172   11.5643 H   0  0  0  0  0  0  0  0  0  0  0  0
   -4.1173   -0.7775    8.6314 H   0  0  0  0  0  0  0  0  0  0  0  0
   -4.9028   -2.1768    9.3654 H   0  0  0  0  0  0  0  0  0  0  0  0
   -7.5491   -0.2281    7.6416 H   0  0  0  0  0  0  0  0  0  0  0  0
   -5.8664    0.1092    7.1788 H   0  0  0  0  0  0  0  0  0  0  0  0
   -6.4327   -1.5617    7.3967 H   0  0  0  0  0  0  0  0  0  0  0  0
   -7.0098    1.4523    9.1854 H   0  0  0  0  0  0  0  0  0  0  0  0
   -6.7839    0.7305   10.7593 H   0  0  0  0  0  0  0  0  0  0  0  0
   -4.5361    1.7485    8.9625 H   0  0  0  0  0  0  0  0  0  0  0  0
   -5.1854    2.5916   10.3600 H   0  0  0  0  0  0  0  0  0  0  0  0
   -2.1419   -3.0088    2.1197 Ti  0  0  0  0  0  0  0  0  0  0  0  0
    0.2890   -1.6948    1.4324 Ti  0  0  0  0  0  0  0  0  0  0  0  0
    1.9031   -3.0677   -0.7293 Ti  0  0  0  0  0  0  0  0  0  0  0  0
   -2.5215   -0.2519    1.3037 Ti  0  0  0  0  0  0  0  0  0  0  0  0
    2.1420    0.4995    2.2044 Ti  0  0  0  0  0  0  0  0  0  0  0  0
   -0.6814    0.1896    3.6812 Ti  0  0  0  0  0  0  0  0  0  0  0  0
   -2.0368   -3.0777   -1.2005 Ti  0  0  0  0  0  0  0  0  0  0  0  0
   -0.6053   -0.7709   -2.0351 Ti  0  0  0  0  0  0  0  0  0  0  0  0
    1.9455   -1.5873   -3.4124 Ti  0  0  0  0  0  0  0  0  0  0  0  0
   -1.8782    1.7466   -1.2400 Ti  0  0  0  0  0  0  0  0  0  0  0  0
    2.4125    0.4542   -0.7742 Ti  0  0  0  0  0  0  0  0  0  0  0  0
    0.8177    1.8385   -2.9400 Ti  0  0  0  0  0  0  0  0  0  0  0  0
   -3.6784    1.2814    0.6007 C   0  0  0  0  0  0  0  0  0  0  0  0
    4.1282    0.4828    0.3873 C   0  0  0  0  0  0  0  0  0  0  0  0
    0.4555    2.2672    0.3497 C   0  0  0  0  0  0  0  0  0  0  0  0
   -3.6667    2.1188   -0.3139 C   0  0  0  0  0  0  0  0  0  0  0  0
    4.1160    0.6322    1.6214 C   0  0  0  0  0  0  0  0  0  0  0  0
   -0.6352    2.7410   -0.1189 C   0  0  0  0  0  0  0  0  0  0  0  0
    1.6301    1.7810    0.7342 C   0  0  0  0  0  0  0  0  0  0  0  0
   -3.0935   -1.9569    1.0379 O   0  0  0  0  0  0  0  0  0  0  0  0
   -0.4872   -2.6058    2.7012 O   0  0  0  0  0  0  0  0  0  0  0  0
    0.3141   -2.8889    0.1450 O   0  0  0  0  0  0  0  0  0  0  0  0
   -0.8008   -0.4359    0.9712 O   0  0  0  0  0  0  0  0  0  0  0  0
    1.9029   -1.1583    1.4694 O   0  0  0  0  0  0  0  0  0  0  0  0
   -2.3227   -0.1139    3.0248 O   0  0  0  0  0  0  0  0  0  0  0  0
    1.0138    0.4416    3.5688 O   0  0  0  0  0  0  0  0  0  0  0  0
   -1.7720   -4.5879   -1.6528 O   0  0  0  0  0  0  0  0  0  0  0  0
    0.1906   -1.1892   -3.5340 O   0  0  0  0  0  0  0  0  0  0  0  0
    2.8314   -2.1702   -1.9180 O   0  0  0  0  0  0  0  0  0  0  0  0
   -2.0546   -0.2244   -1.3375 O   0  0  0  0  0  0  0  0  0  0  0  0
    0.7685   -0.3906   -1.0637 O   0  0  0  0  0  0  0  0  0  0  0  0
   -0.9000    1.6493   -2.8186 O   0  0  0  0  0  0  0  0  0  0  0  0
    2.4153    1.3575   -2.2641 O   0  0  0  0  0  0  0  0  0  0  0  0
  1  2  1  0  0  0  0
  2  3  1  0  0  0  0
  3  4  4  0  0  0  0
  4  5  4  0  0  0  0
  5  6  4  0  0  0  0
  6  7  1  0  0  0  0
  7  8  1  0  0  0  0
  8  9  4  0  0  0  0
  9 10  4  0  0  0  0
 10 11  4  0  0  0  0
 11 12  1  0  0  0  0
 11 13  4  0  0  0  0
 13 14  1  0  0  0  0
  8 15  4  0  0  0  0
 13 15  4  0  0  0  0
  6 16  4  0  0  0  0
 16 17  4  0  0  0  0
 17 18  4  0  0  0  0
  5 19  4  0  0  0  0
 18 19  4  0  0  0  0
 19 20  4  0  0  0  0
  3 21  4  0  0  0  0
 20 21  4  0  0  0  0
 21 22  1  0  0  0  0
 22 23  1  0  0  0  0
 23 24  1  0  0  0  0
 24 25  1  0  0  0  0
 25 26  1  0  0  0  0
 26 27  1  0  0  0  0
 27 28  1  0  0  0  0
 27 29  1  0  0  0  0
 24 30  1  0  0  0  0
 29 30  1  0  0  0  0
  1 31  1  0  0  0  0
  1 32  1  0  0  0  0
  1 33  1  0  0  0  0
  4 34  1  0  0  0  0
  7 35  1  0  0  0  0
  9 36  1  0  0  0  0
 10 37  1  0  0  0  0
 15 38  1  0  0  0  0
 17 39  1  0  0  0  0
 20 40  1  0  0  0  0
 23 41  1  0  0  0  0
 23 42  1  0  0  0  0
 24 43  1  0  0  0  0
 25 44  1  0  0  0  0
 25 45  1  0  0  0  0
 26 46  1  0  0  0  0
 26 47  1  0  0  0  0
 28 48  1  0  0  0  0
 28 49  1  0  0  0  0
 28 50  1  0  0  0  0
 29 51  1  0  0  0  0
 29 52  1  0  0  0  0
 30 53  1  0  0  0  0
 30 54  1  0  0  0  0
 55 61  1  0  0  0  0
 61 62  1  0  0  0  0
 57 63  1  0  0  0  0
 58 67  1  0  0  0  0
 65 68  1  0  0  0  0
 64 70  1  0  0  0  0
 67 70  3  0  0  0  0
 59 71  1  0  0  0  0
 68 71  3  0  0  0  0
 64 72  1  0  0  0  0
 69 72  2  0  0  0  0
 59 73  1  0  0  0  0
 65 73  1  0  0  0  0
 69 73  2  0  0  0  0
 55 74  1  0  0  0  0
 58 74  1  0  0  0  0
 55 75  1  0  0  0  0
 56 75  1  0  0  0  0
 56 76  1  0  0  0  0
 57 76  1  0  0  0  0
 56 77  1  0  0  0  0
 58 77  1  0  0  0  0
 56 78  1  0  0  0  0
 59 78  1  0  0  0  0
 58 79  1  0  0  0  0
 60 79  1  0  0  0  0
 59 80  1  0  0  0  0
 60 80  1  0  0  0  0
 61 81  2  0  0  0  0
 62 82  1  0  0  0  0
 63 82  1  0  0  0  0
 57 83  1  0  0  0  0
 63 83  1  0  0  0  0
 62 84  1  0  0  0  0
 64 84  1  0  0  0  0
 62 85  1  0  0  0  0
 65 85  1  0  0  0  0
 64 86  1  0  0  0  0
 66 86  1  0  0  0  0
 65 87  1  0  0  0  0
 66 87  1  0  0  0  0
M  END
