 xtb: 6.7.1pre (5071a88)
          08312621193D

 93105  0     0  0            999 V2000
   -3.4566   -4.9160    8.1487 C   0  0  0  0  0  0  0  0  0  0  0  0
   -3.1210   -3.5655    8.4346 O   0  0  0  0  0  0  0  0  0  0  0  0
   -1.7896   -3.2421    8.5190 C   0  0  0  0  0  0  0  0  0  0  0  0
   -0.7419   -4.1626    8.4024 C   0  0  0  0  0  0  0  0  0  0  0  0
    0.5898   -3.7800    8.4992 C   0  0  0  0  0  0  0  0  0  0  0  0
    1.5288   -4.7231    8.3857 N   0  0  0  0  0  0  0  0  0  0  0  0
    2.7996   -4.3229    8.4921 C   0  0  0  0  0  0  0  0  0  0  0  0
    3.2181   -3.0713    8.6918 N   0  0  0  0  0  0  0  0  0  0  0  0
    2.2692   -2.1224    8.7873 C   0  0  0  0  0  0  0  0  0  0  0  0
    2.6580   -0.7690    8.9650 N   0  0  0  0  0  0  0  0  0  0  0  0
    3.9447   -0.2527    9.2701 C   0  0  0  0  0  0  0  0  0  0  0  0
    4.8637   -0.9382   10.0769 C   0  0  0  0  0  0  0  0  0  0  0  0
    6.1094   -0.3904   10.4229 C   0  0  0  0  0  0  0  0  0  0  0  0
    6.3911    0.8910    9.9470 C   0  0  0  0  0  0  0  0  0  0  0  0
    7.4813    1.7110   10.0894 N   0  0  0  0  0  0  0  0  0  0  0  0
    7.2301    2.8833    9.4203 C   0  0  0  0  0  0  0  0  0  0  0  0
    8.2102    3.9931    9.3750 C   0  0  0  0  0  0  0  0  0  0  0  0
    6.0400    2.8578    8.8585 N   0  0  0  0  0  0  0  0  0  0  0  0
    5.5028    1.6271    9.1702 C   0  0  0  0  0  0  0  0  0  0  0  0
    4.2650    1.0510    8.8404 C   0  0  0  0  0  0  0  0  0  0  0  0
    3.3689    1.7285    8.1012 F   0  0  0  0  0  0  0  0  0  0  0  0
    0.8945   -2.4306    8.7117 C   0  0  0  0  0  0  0  0  0  0  0  0
   -0.1615   -1.4917    8.8441 C   0  0  0  0  0  0  0  0  0  0  0  0
   -1.4960   -1.8897    8.7501 C   0  0  0  0  0  0  0  0  0  0  0  0
   -2.5705   -1.0463    8.8598 O   0  0  0  0  0  0  0  0  0  0  0  0
   -2.3273    0.3137    9.2160 C   0  0  0  0  0  0  0  0  0  0  0  0
   -3.6719    1.0377    9.3557 C   0  0  0  0  0  0  0  0  0  0  0  0
   -3.4631    2.5400    9.6221 C   0  0  0  0  0  0  0  0  0  0  0  0
   -4.5710    3.1666   10.4784 C   0  0  0  0  0  0  0  0  0  0  0  0
   -5.8600    2.5597   10.1604 N   0  0  0  0  0  0  0  0  0  0  0  0
   -6.9706    3.2988   10.7528 C   0  0  0  0  0  0  0  0  0  0  0  0
   -5.9079    1.1396   10.5422 C   0  0  0  0  0  0  0  0  0  0  0  0
   -4.5516    0.4247   10.4503 C   0  0  0  0  0  0  0  0  0  0  0  0
   -3.1264   -5.5824    8.9522 H   0  0  0  0  0  0  0  0  0  0  0  0
   -3.0502   -5.2289    7.1812 H   0  0  0  0  0  0  0  0  0  0  0  0
   -4.5471   -4.9839    8.0884 H   0  0  0  0  0  0  0  0  0  0  0  0
   -0.9382   -5.2170    8.2349 H   0  0  0  0  0  0  0  0  0  0  0  0
    3.5637   -5.0878    8.4064 H   0  0  0  0  0  0  0  0  0  0  0  0
    2.2205   -0.1917    8.2479 H   0  0  0  0  0  0  0  0  0  0  0  0
    4.6154   -1.9261   10.4599 H   0  0  0  0  0  0  0  0  0  0  0  0
    6.8094   -0.9442   11.0397 H   0  0  0  0  0  0  0  0  0  0  0  0
    8.3243    1.4923   10.6002 H   0  0  0  0  0  0  0  0  0  0  0  0
    8.4308    4.3536   10.3845 H   0  0  0  0  0  0  0  0  0  0  0  0
    7.8162    4.8314    8.7921 H   0  0  0  0  0  0  0  0  0  0  0  0
    9.1442    3.6634    8.9097 H   0  0  0  0  0  0  0  0  0  0  0  0
    0.0879   -0.4527    9.0318 H   0  0  0  0  0  0  0  0  0  0  0  0
   -1.7397    0.8003    8.4279 H   0  0  0  0  0  0  0  0  0  0  0  0
   -1.7827    0.3619   10.1673 H   0  0  0  0  0  0  0  0  0  0  0  0
   -4.2135    0.9227    8.4058 H   0  0  0  0  0  0  0  0  0  0  0  0
   -3.4076    3.0565    8.6550 H   0  0  0  0  0  0  0  0  0  0  0  0
   -2.5026    2.7187   10.1213 H   0  0  0  0  0  0  0  0  0  0  0  0
   -4.3375    3.0492   11.5450 H   0  0  0  0  0  0  0  0  0  0  0  0
   -4.5852    4.2447   10.2755 H   0  0  0  0  0  0  0  0  0  0  0  0
   -6.9867    4.3303   10.3840 H   0  0  0  0  0  0  0  0  0  0  0  0
   -6.9116    3.3257   11.8468 H   0  0  0  0  0  0  0  0  0  0  0  0
   -7.9281    2.8484   10.4684 H   0  0  0  0  0  0  0  0  0  0  0  0
   -6.6218    0.6365    9.8788 H   0  0  0  0  0  0  0  0  0  0  0  0
   -6.2819    1.0112   11.5664 H   0  0  0  0  0  0  0  0  0  0  0  0
   -4.0341    0.5013   11.4159 H   0  0  0  0  0  0  0  0  0  0  0  0
   -4.7221   -0.6426   10.2679 H   0  0  0  0  0  0  0  0  0  0  0  0
   -2.1419   -3.0088    2.1197 Ti  0  0  0  0  0  0  0  0  0  0  0  0
    0.2890   -1.6948    1.4324 Ti  0  0  0  0  0  0  0  0  0  0  0  0
    1.9031   -3.0677   -0.7293 Ti  0  0  0  0  0  0  0  0  0  0  0  0
   -2.5215   -0.2519    1.3037 Ti  0  0  0  0  0  0  0  0  0  0  0  0
    2.1420    0.4995    2.2044 Ti  0  0  0  0  0  0  0  0  0  0  0  0
   -0.6814    0.1896    3.6812 Ti  0  0  0  0  0  0  0  0  0  0  0  0
   -2.0368   -3.0777   -1.2005 Ti  0  0  0  0  0  0  0  0  0  0  0  0
   -0.6053   -0.7709   -2.0351 Ti  0  0  0  0  0  0  0  0  0  0  0  0
    1.9455   -1.5873   -3.4124 Ti  0  0  0  0  0  0  0  0  0  0  0  0
   -1.8782    1.7466   -1.2400 Ti  0  0  0  0  0  0  0  0  0  0  0  0
    2.4125    0.4542   -0.7742 Ti  0  0  0  0  0  0  0  0  0  0  0  0
    0.8177    1.8385   -2.9400 Ti  0  0  0  0  0  0  0  0  0  0  0  0
   -3.6784    1.2814    0.6007 C   0  0  0  0  0  0  0  0  0  0  0  0
    4.1282    0.4828    0.3873 C   0  0  0  0  0  0  0  0  0  0  0  0
    0.4555    2.2672    0.3497 C   0  0  0  0  0  0  0  0  0  0  0  0
   -3.6667    2.1188   -0.3139 C   0  0  0  0  0  0  0  0  0  0  0  0
    4.1160    0.6322    1.6214 C   0  0  0  0  0  0  0  0  0  0  0  0
   -0.6352    2.7410   -0.1189 C   0  0  0  0  0  0  0  0  0  0  0  0
    1.6301    1.7810    0.7342 C   0  0  0  0  0  0  0  0  0  0  0  0
   -3.0935   -1.9569    1.0379 O   0  0  0  0  0  0  0  0  0  0  0  0
   -0.4872   -2.6058    2.7012 O   0  0  0  0  0  0  0  0  0  0  0  0
    0.3141   -2.8889    0.1450 O   0  0  0  0  0  0  0  0  0  0  0  0
   -0.8008   -0.4359    0.9712 O   0  0  0  0  0  0  0  0  0  0  0  0
    1.9029   -1.1583    1.4694 O   0  0  0  0  0  0  0  0  0  0  0  0
   -2.3227   -0.1139    3.0248 O   0  0  0  0  0  0  0  0  0  0  0  0
    1.0138    0.4416    3.5688 O   0  0  0  0  0  0  0  0  0  0  0  0
   -1.7720   -4.5879   -1.6528 O   0  0  0  0  0  0  0  0  0  0  0  0
    0.1906   -1.1892   -3.5340 O   0  0  0  0  0  0  0  0  0  0  0  0
    2.8314   -2.1702   -1.9180 O   0  0  0  0  0  0  0  0  0  0  0  0
   -2.0546   -0.2244   -1.3375 O   0  0  0  0  0  0  0  0  0  0  0  0
    0.7685   -0.3906   -1.0637 O   0  0  0  0  0  0  0  0  0  0  0  0
   -0.9000    1.6493   -2.8186 O   0  0  0  0  0  0  0  0  0  0  0  0
    2.4153    1.3575   -2.2641 O   0  0  0  0  0  0  0  0  0  0  0  0
  1  2  1  0  0  0  0
  2  3  1  0  0  0  0
  3  4  4  0  0  0  0
  4  5  4  0  0  0  0
  5  6  4  0  0  0  0
  6  7  4  0  0  0  0
  7  8  4  0  0  0  0
  8  9  4  0  0  0  0
  9 10  1  0  0  0  0
 10 11  1  0  0  0  0
 11 12  4  0  0  0  0
 12 13  4  0  0  0  0
 13 14  4  0  0  0  0
 14 15  1  0  0  0  0
 15 16  4  0  0  0  0
 16 17  1  0  0  0  0
 16 18  2  0  0  0  0
 14 19  4  0  0  0  0
 18 19  4  0  0  0  0
 11 20  4  0  0  0  0
 19 20  4  0  0  0  0
 20 21  1  0  0  0  0
  5 22  4  0  0  0  0
  9 22  4  0  0  0  0
 22 23  4  0  0  0  0
  3 24  4  0  0  0  0
 23 24  4  0  0  0  0
 24 25  1  0  0  0  0
 25 26  1  0  0  0  0
 26 27  1  0  0  0  0
 27 28  1  0  0  0  0
 28 29  1  0  0  0  0
 29 30  1  0  0  0  0
 30 31  1  0  0  0  0
 30 32  1  0  0  0  0
 27 33  1  0  0  0  0
 32 33  1  0  0  0  0
  1 34  1  0  0  0  0
  1 35  1  0  0  0  0
  1 36  1  0  0  0  0
  4 37  1  0  0  0  0
  7 38  1  0  0  0  0
 10 39  1  0  0  0  0
 12 40  1  0  0  0  0
 13 41  1  0  0  0  0
 15 42  1  0  0  0  0
 17 43  1  0  0  0  0
 17 44  1  0  0  0  0
 17 45  1  0  0  0  0
 23 46  1  0  0  0  0
 26 47  1  0  0  0  0
 26 48  1  0  0  0  0
 27 49  1  0  0  0  0
 28 50  1  0  0  0  0
 28 51  1  0  0  0  0
 29 52  1  0  0  0  0
 29 53  1  0  0  0  0
 31 54  1  0  0  0  0
 31 55  1  0  0  0  0
 31 56  1  0  0  0  0
 32 57  1  0  0  0  0
 32 58  1  0  0  0  0
 33 59  1  0  0  0  0
 33 60  1  0  0  0  0
 61 67  1  0  0  0  0
 67 68  1  0  0  0  0
 63 69  1  0  0  0  0
 64 73  1  0  0  0  0
 71 74  1  0  0  0  0
 70 76  1  0  0  0  0
 73 76  3  0  0  0  0
 65 77  1  0  0  0  0
 74 77  3  0  0  0  0
 70 78  1  0  0  0  0
 75 78  2  0  0  0  0
 65 79  1  0  0  0  0
 71 79  1  0  0  0  0
 75 79  2  0  0  0  0
 61 80  1  0  0  0  0
 64 80  1  0  0  0  0
 61 81  1  0  0  0  0
 62 81  1  0  0  0  0
 62 82  1  0  0  0  0
 63 82  1  0  0  0  0
 62 83  1  0  0  0  0
 64 83  1  0  0  0  0
 62 84  1  0  0  0  0
 65 84  1  0  0  0  0
 64 85  1  0  0  0  0
 66 85  1  0  0  0  0
 65 86  1  0  0  0  0
 66 86  1  0  0  0  0
 67 87  2  0  0  0  0
 68 88  1  0  0  0  0
 69 88  1  0  0  0  0
 63 89  1  0  0  0  0
 69 89  1  0  0  0  0
 68 90  1  0  0  0  0
 70 90  1  0  0  0  0
 68 91  1  0  0  0  0
 71 91  1  0  0  0  0
 70 92  1  0  0  0  0
 72 92  1  0  0  0  0
 71 93  1  0  0  0  0
 72 93  1  0  0  0  0
M  END
