 xtb: 6.7.1pre (5071a88)
          09022620133D

 33 41  0     0  0            999 V2000
   -3.5895   -0.5146    5.1093 Ti  0  0  0  0  0  0  0  0  0  0  0  0
    0.3025   -1.2576    4.0596 Ti  0  0  0  0  0  0  0  0  0  0  0  0
    1.0379   -3.1126    2.0385 Ti  0  0  0  0  0  0  0  0  0  0  0  0
   -1.6362    1.4740    4.6122 Ti  0  0  0  0  0  0  0  0  0  0  0  0
    3.3985   -0.8100    5.0432 Ti  0  0  0  0  0  0  0  0  0  0  0  0
    1.2805    0.9052    6.1505 Ti  0  0  0  0  0  0  0  0  0  0  0  0
   -2.5323   -1.8377    2.6902 Ti  0  0  0  0  0  0  0  0  0  0  0  0
   -0.5712    0.3771    1.7543 Ti  0  0  0  0  0  0  0  0  0  0  0  0
    0.9650   -1.0080   -0.2615 Ti  0  0  0  0  0  0  0  0  0  0  0  0
    0.6189    2.9429    3.3225 Ti  0  0  0  0  0  0  0  0  0  0  0  0
    3.4615   -0.5975    1.9844 Ti  0  0  0  0  0  0  0  0  0  0  0  0
    2.0843    1.9064    0.7680 Ti  0  0  0  0  0  0  0  0  0  0  0  0
   -1.6159    3.5808    4.3093 C   0  0  0  0  0  0  0  0  0  0  0  0
    4.8000   -1.8872    2.8723 C   0  0  0  0  0  0  0  0  0  0  0  0
    3.1150    1.8292    3.7217 C   0  0  0  0  0  0  0  0  0  0  0  0
   -0.7510    4.3370    3.8430 C   0  0  0  0  0  0  0  0  0  0  0  0
    4.8395   -1.9926    4.1074 C   0  0  0  0  0  0  0  0  0  0  0  0
    2.5123    2.9461    3.8574 C   0  0  0  0  0  0  0  0  0  0  0  0
    3.7253    0.6440    3.6103 C   0  0  0  0  0  0  0  0  0  0  0  0
   -3.0158    1.1089    5.5348 O   0  0  0  0  0  0  0  0  0  0  0  0
   -3.5058   -1.9502    4.1005 O   0  0  0  0  0  0  0  0  0  0  0  0
   -0.0097   -2.8796    3.4276 O   0  0  0  0  0  0  0  0  0  0  0  0
   -0.9515   -0.6952    4.9592 O   0  0  0  0  0  0  0  0  0  0  0  0
    1.9771   -1.6267    4.4566 O   0  0  0  0  0  0  0  0  0  0  0  0
    0.0507    1.6839    5.2095 O   0  0  0  0  0  0  0  0  0  0  0  0
    2.7853    0.0817    6.4163 O   0  0  0  0  0  0  0  0  0  0  0  0
   -1.2596   -1.2215    1.6459 O   0  0  0  0  0  0  0  0  0  0  0  0
   -0.1145    0.3753    0.0552 O   0  0  0  0  0  0  0  0  0  0  0  0
    1.9346   -2.0812    0.8527 O   0  0  0  0  0  0  0  0  0  0  0  0
   -1.6439    1.1500    2.8656 O   0  0  0  0  0  0  0  0  0  0  0  0
    0.7748   -0.0328    2.8260 O   0  0  0  0  0  0  0  0  0  0  0  0
    0.6251    2.4837    1.6320 O   0  0  0  0  0  0  0  0  0  0  0  0
    3.2508    0.6066    0.7250 O   0  0  0  0  0  0  0  0  0  0  0  0
  1  7  1  0  0  0  0
  3  9  1  0  0  0  0
  5 11  1  0  0  0  0
  4 13  1  0  0  0  0
 11 14  1  0  0  0  0
 10 16  1  0  0  0  0
 13 16  3  0  0  0  0
  5 17  1  0  0  0  0
 14 17  3  0  0  0  0
 10 18  1  0  0  0  0
 15 18  2  0  0  0  0
  5 19  1  0  0  0  0
 11 19  1  0  0  0  0
 15 19  2  0  0  0  0
  1 20  1  0  0  0  0
  4 20  1  0  0  0  0
  1 21  1  0  0  0  0
  7 21  1  0  0  0  0
  2 22  1  0  0  0  0
  3 22  1  0  0  0  0
  2 23  1  0  0  0  0
  2 24  1  0  0  0  0
  5 24  1  0  0  0  0
  4 25  1  0  0  0  0
  6 25  1  0  0  0  0
  5 26  1  0  0  0  0
  6 26  1  0  0  0  0
  7 27  1  0  0  0  0
  8 27  1  0  0  0  0
  8 28  1  0  0  0  0
  9 28  1  0  0  0  0
  3 29  1  0  0  0  0
  9 29  1  0  0  0  0
  4 30  1  0  0  0  0
  8 30  1  0  0  0  0
  2 31  1  0  0  0  0
  8 31  1  0  0  0  0
 10 32  1  0  0  0  0
 12 32  1  0  0  0  0
 11 33  1  0  0  0  0
 12 33  1  0  0  0  0
M  END
