 xtb: 6.7.1pre (5071a88)
          09012617053D

 33 40  0     0  0            999 V2000
   -1.9597   -2.6581    4.1047 Ti  0  0  0  0  0  0  0  0  0  0  0  0
    0.4318   -1.6807    2.8686 Ti  0  0  0  0  0  0  0  0  0  0  0  0
    1.8536   -3.3331    0.8319 Ti  0  0  0  0  0  0  0  0  0  0  0  0
   -2.3818   -0.2499    2.5589 Ti  0  0  0  0  0  0  0  0  0  0  0  0
    2.2564    0.7221    3.2294 Ti  0  0  0  0  0  0  0  0  0  0  0  0
   -0.4482    0.8539    4.6311 Ti  0  0  0  0  0  0  0  0  0  0  0  0
   -1.9025   -3.4048    0.7757 Ti  0  0  0  0  0  0  0  0  0  0  0  0
   -0.4014   -1.1364   -0.6791 Ti  0  0  0  0  0  0  0  0  0  0  0  0
    1.8402   -2.1477   -2.0735 Ti  0  0  0  0  0  0  0  0  0  0  0  0
   -1.8745    1.3242   -0.2593 Ti  0  0  0  0  0  0  0  0  0  0  0  0
    2.4829    0.2924    0.2294 Ti  0  0  0  0  0  0  0  0  0  0  0  0
    0.7972    1.4268   -1.9760 Ti  0  0  0  0  0  0  0  0  0  0  0  0
   -3.6419    1.0507    1.6057 C   0  0  0  0  0  0  0  0  0  0  0  0
    4.2130    0.3731    1.3493 C   0  0  0  0  0  0  0  0  0  0  0  0
    0.4951    2.1253    1.2289 C   0  0  0  0  0  0  0  0  0  0  0  0
   -3.7047    1.7313    0.5706 C   0  0  0  0  0  0  0  0  0  0  0  0
    4.2175    0.6992    2.5473 C   0  0  0  0  0  0  0  0  0  0  0  0
   -0.6856    2.4400    0.8618 C   0  0  0  0  0  0  0  0  0  0  0  0
    1.7395    1.7914    1.5797 C   0  0  0  0  0  0  0  0  0  0  0  0
   -2.9868   -1.9531    2.8124 O   0  0  0  0  0  0  0  0  0  0  0  0
   -0.2595   -2.2089    4.3940 O   0  0  0  0  0  0  0  0  0  0  0  0
    0.5305   -3.1946    2.0393 O   0  0  0  0  0  0  0  0  0  0  0  0
   -0.7175   -0.6080    2.1544 O   0  0  0  0  0  0  0  0  0  0  0  0
    1.9985   -1.0246    2.8362 O   0  0  0  0  0  0  0  0  0  0  0  0
   -2.0673    0.2604    4.2094 O   0  0  0  0  0  0  0  0  0  0  0  0
    1.2778    1.0758    4.6628 O   0  0  0  0  0  0  0  0  0  0  0  0
   -0.6702   -2.8518   -0.3508 O   0  0  0  0  0  0  0  0  0  0  0  0
    0.2662   -1.3025   -2.2970 O   0  0  0  0  0  0  0  0  0  0  0  0
    2.6475   -2.7887   -0.6209 O   0  0  0  0  0  0  0  0  0  0  0  0
   -1.9335   -0.5129   -0.1642 O   0  0  0  0  0  0  0  0  0  0  0  0
    0.9590   -0.6180    0.2173 O   0  0  0  0  0  0  0  0  0  0  0  0
   -0.9374    1.3839   -1.7696 O   0  0  0  0  0  0  0  0  0  0  0  0
    2.4268    0.9756   -1.3718 O   0  0  0  0  0  0  0  0  0  0  0  0
  1  7  1  0  0  0  0
  4 13  1  0  0  0  0
 11 14  1  0  0  0  0
 10 16  1  0  0  0  0
 13 16  3  0  0  0  0
  5 17  1  0  0  0  0
 14 17  3  0  0  0  0
 10 18  1  0  0  0  0
 15 18  2  0  0  0  0
  5 19  1  0  0  0  0
 11 19  1  0  0  0  0
 15 19  2  0  0  0  0
  1 20  1  0  0  0  0
  4 20  1  0  0  0  0
  1 21  1  0  0  0  0
  2 21  1  0  0  0  0
  2 22  1  0  0  0  0
  3 22  1  0  0  0  0
  2 23  1  0  0  0  0
  4 23  1  0  0  0  0
  2 24  1  0  0  0  0
  5 24  1  0  0  0  0
  4 25  1  0  0  0  0
  6 25  1  0  0  0  0
  5 26  1  0  0  0  0
  6 26  1  0  0  0  0
  7 27  1  0  0  0  0
  8 27  1  0  0  0  0
  8 28  1  0  0  0  0
  9 28  1  0  0  0  0
  3 29  1  0  0  0  0
  9 29  1  0  0  0  0
  8 30  1  0  0  0  0
 10 30  1  0  0  0  0
  8 31  1  0  0  0  0
 11 31  1  0  0  0  0
 10 32  1  0  0  0  0
 12 32  1  0  0  0  0
 11 33  1  0  0  0  0
 12 33  1  0  0  0  0
M  END
