 xtb: 6.7.1pre (5071a88)
          08312621193D

 90101  0     0  0            999 V2000
   -3.4123    2.9899   11.1796 C   0  0  0  0  0  0  0  0  0  0  0  0
   -2.7479    3.0156    9.7922 C   0  0  0  0  0  0  0  0  0  0  0  0
   -3.7955    3.3805    8.7245 C   0  0  0  0  0  0  0  0  0  0  0  0
   -1.6579    4.1058    9.7909 C   0  0  0  0  0  0  0  0  0  0  0  0
   -2.1741    1.6322    9.4907 C   0  0  0  0  0  0  0  0  0  0  0  0
   -0.8541    1.4908    9.3809 N   0  0  0  0  0  0  0  0  0  0  0  0
   -0.4308    0.2493    9.1379 C   0  0  0  0  0  0  0  0  0  0  0  0
   -1.2353   -0.8062    9.0031 N   0  0  0  0  0  0  0  0  0  0  0  0
   -2.5411   -0.5858    9.1195 C   0  0  0  0  0  0  0  0  0  0  0  0
   -3.0381    0.6227    9.3695 N   0  0  0  0  0  0  0  0  0  0  0  0
   -3.4174   -1.6680    9.0183 N   0  0  0  0  0  0  0  0  0  0  0  0
   -2.9005   -2.7935    8.2213 C   0  0  0  0  0  0  0  0  0  0  0  0
   -3.8924   -3.9663    8.2549 C   0  0  0  0  0  0  0  0  0  0  0  0
   -5.2022   -3.5608    7.8289 O   0  0  0  0  0  0  0  0  0  0  0  0
   -5.7050   -2.5382    8.7024 C   0  0  0  0  0  0  0  0  0  0  0  0
   -4.8040   -1.2941    8.6901 C   0  0  0  0  0  0  0  0  0  0  0  0
    1.0116    0.0132    9.0254 C   0  0  0  0  0  0  0  0  0  0  0  0
    1.5366   -1.2644    9.0927 C   0  0  0  0  0  0  0  0  0  0  0  0
    2.8479   -1.5750    9.0096 N   0  0  0  0  0  0  0  0  0  0  0  0
    3.7104   -0.5649    8.8459 C   0  0  0  0  0  0  0  0  0  0  0  0
    5.0714   -0.8508    8.7194 N   0  0  0  0  0  0  0  0  0  0  0  0
    5.9450    0.2911    9.0349 C   0  0  0  0  0  0  0  0  0  0  0  0
    7.4137   -0.0873    8.7903 C   0  0  0  0  0  0  0  0  0  0  0  0
    7.7854   -1.2694    9.5180 O   0  0  0  0  0  0  0  0  0  0  0  0
    6.9682   -2.3750    9.1020 C   0  0  0  0  0  0  0  0  0  0  0  0
    5.4780   -2.1083    9.3638 C   0  0  0  0  0  0  0  0  0  0  0  0
    3.2996    0.7079    8.7604 N   0  0  0  0  0  0  0  0  0  0  0  0
    1.9863    0.9905    8.8618 C   0  0  0  0  0  0  0  0  0  0  0  0
    1.6685    2.3530    8.7026 N   0  0  0  0  0  0  0  0  0  0  0  0
   -3.8263    3.9712   11.4382 H   0  0  0  0  0  0  0  0  0  0  0  0
   -4.2339    2.2652   11.2225 H   0  0  0  0  0  0  0  0  0  0  0  0
   -2.6922    2.7144   11.9593 H   0  0  0  0  0  0  0  0  0  0  0  0
   -3.3561    3.3742    7.7200 H   0  0  0  0  0  0  0  0  0  0  0  0
   -4.2100    4.3794    8.9024 H   0  0  0  0  0  0  0  0  0  0  0  0
   -4.6350    2.6754    8.7196 H   0  0  0  0  0  0  0  0  0  0  0  0
   -1.1506    4.1638    8.8206 H   0  0  0  0  0  0  0  0  0  0  0  0
   -2.0866    5.0932    9.9982 H   0  0  0  0  0  0  0  0  0  0  0  0
   -0.8952    3.9134   10.5547 H   0  0  0  0  0  0  0  0  0  0  0  0
   -1.9398   -3.1533    8.6083 H   0  0  0  0  0  0  0  0  0  0  0  0
   -2.7625   -2.4704    7.1812 H   0  0  0  0  0  0  0  0  0  0  0  0
   -3.5536   -4.7582    7.5794 H   0  0  0  0  0  0  0  0  0  0  0  0
   -3.9614   -4.3946    9.2622 H   0  0  0  0  0  0  0  0  0  0  0  0
   -5.7968   -2.9477    9.7157 H   0  0  0  0  0  0  0  0  0  0  0  0
   -6.7096   -2.2722    8.3588 H   0  0  0  0  0  0  0  0  0  0  0  0
   -5.2093   -0.5773    9.4142 H   0  0  0  0  0  0  0  0  0  0  0  0
   -4.8330   -0.8409    7.6905 H   0  0  0  0  0  0  0  0  0  0  0  0
    0.8927   -2.1313    9.2274 H   0  0  0  0  0  0  0  0  0  0  0  0
    5.7132    1.1612    8.4092 H   0  0  0  0  0  0  0  0  0  0  0  0
    5.8191    0.5695   10.0895 H   0  0  0  0  0  0  0  0  0  0  0  0
    8.0668    0.7258    9.1227 H   0  0  0  0  0  0  0  0  0  0  0  0
    7.6046   -0.2524    7.7229 H   0  0  0  0  0  0  0  0  0  0  0  0
    7.1515   -2.5728    8.0389 H   0  0  0  0  0  0  0  0  0  0  0  0
    7.2917   -3.2565    9.6645 H   0  0  0  0  0  0  0  0  0  0  0  0
    4.9097   -2.9622    8.9766 H   0  0  0  0  0  0  0  0  0  0  0  0
    5.3126   -2.0360   10.4468 H   0  0  0  0  0  0  0  0  0  0  0  0
    0.9987    2.6128    9.4272 H   0  0  0  0  0  0  0  0  0  0  0  0
    1.1772    2.4717    7.8207 H   0  0  0  0  0  0  0  0  0  0  0  0
   -2.1419   -3.0088    2.1197 Ti  0  0  0  0  0  0  0  0  0  0  0  0
    0.2890   -1.6948    1.4324 Ti  0  0  0  0  0  0  0  0  0  0  0  0
    1.9031   -3.0677   -0.7293 Ti  0  0  0  0  0  0  0  0  0  0  0  0
   -2.5215   -0.2519    1.3037 Ti  0  0  0  0  0  0  0  0  0  0  0  0
    2.1420    0.4995    2.2044 Ti  0  0  0  0  0  0  0  0  0  0  0  0
   -0.6814    0.1896    3.6812 Ti  0  0  0  0  0  0  0  0  0  0  0  0
   -2.0368   -3.0777   -1.2005 Ti  0  0  0  0  0  0  0  0  0  0  0  0
   -0.6053   -0.7709   -2.0351 Ti  0  0  0  0  0  0  0  0  0  0  0  0
    1.9455   -1.5873   -3.4124 Ti  0  0  0  0  0  0  0  0  0  0  0  0
   -1.8782    1.7466   -1.2400 Ti  0  0  0  0  0  0  0  0  0  0  0  0
    2.4125    0.4542   -0.7742 Ti  0  0  0  0  0  0  0  0  0  0  0  0
    0.8177    1.8385   -2.9400 Ti  0  0  0  0  0  0  0  0  0  0  0  0
   -3.6784    1.2814    0.6007 C   0  0  0  0  0  0  0  0  0  0  0  0
    4.1282    0.4828    0.3873 C   0  0  0  0  0  0  0  0  0  0  0  0
    0.4555    2.2672    0.3497 C   0  0  0  0  0  0  0  0  0  0  0  0
   -3.6667    2.1188   -0.3139 C   0  0  0  0  0  0  0  0  0  0  0  0
    4.1160    0.6322    1.6214 C   0  0  0  0  0  0  0  0  0  0  0  0
   -0.6352    2.7410   -0.1189 C   0  0  0  0  0  0  0  0  0  0  0  0
    1.6301    1.7810    0.7342 C   0  0  0  0  0  0  0  0  0  0  0  0
   -3.0935   -1.9569    1.0379 O   0  0  0  0  0  0  0  0  0  0  0  0
   -0.4872   -2.6058    2.7012 O   0  0  0  0  0  0  0  0  0  0  0  0
    0.3141   -2.8889    0.1450 O   0  0  0  0  0  0  0  0  0  0  0  0
   -0.8008   -0.4359    0.9712 O   0  0  0  0  0  0  0  0  0  0  0  0
    1.9029   -1.1583    1.4694 O   0  0  0  0  0  0  0  0  0  0  0  0
   -2.3227   -0.1139    3.0248 O   0  0  0  0  0  0  0  0  0  0  0  0
    1.0138    0.4416    3.5688 O   0  0  0  0  0  0  0  0  0  0  0  0
   -1.7720   -4.5879   -1.6528 O   0  0  0  0  0  0  0  0  0  0  0  0
    0.1906   -1.1892   -3.5340 O   0  0  0  0  0  0  0  0  0  0  0  0
    2.8314   -2.1702   -1.9180 O   0  0  0  0  0  0  0  0  0  0  0  0
   -2.0546   -0.2244   -1.3375 O   0  0  0  0  0  0  0  0  0  0  0  0
    0.7685   -0.3906   -1.0637 O   0  0  0  0  0  0  0  0  0  0  0  0
   -0.9000    1.6493   -2.8186 O   0  0  0  0  0  0  0  0  0  0  0  0
    2.4153    1.3575   -2.2641 O   0  0  0  0  0  0  0  0  0  0  0  0
  1  2  1  0  0  0  0
  2  3  1  0  0  0  0
  2  4  1  0  0  0  0
  2  5  1  0  0  0  0
  5  6  4  0  0  0  0
  6  7  4  0  0  0  0
  7  8  4  0  0  0  0
  8  9  4  0  0  0  0
  5 10  4  0  0  0  0
  9 10  4  0  0  0  0
  9 11  1  0  0  0  0
 11 12  1  0  0  0  0
 12 13  1  0  0  0  0
 13 14  1  0  0  0  0
 14 15  1  0  0  0  0
 11 16  1  0  0  0  0
 15 16  1  0  0  0  0
  7 17  1  0  0  0  0
 17 18  4  0  0  0  0
 18 19  4  0  0  0  0
 19 20  4  0  0  0  0
 20 21  1  0  0  0  0
 21 22  1  0  0  0  0
 22 23  1  0  0  0  0
 23 24  1  0  0  0  0
 24 25  1  0  0  0  0
 21 26  1  0  0  0  0
 25 26  1  0  0  0  0
 20 27  4  0  0  0  0
 17 28  4  0  0  0  0
 27 28  4  0  0  0  0
 28 29  1  0  0  0  0
  1 30  1  0  0  0  0
  1 31  1  0  0  0  0
  1 32  1  0  0  0  0
  3 33  1  0  0  0  0
  3 34  1  0  0  0  0
  3 35  1  0  0  0  0
  4 36  1  0  0  0  0
  4 37  1  0  0  0  0
  4 38  1  0  0  0  0
 12 39  1  0  0  0  0
 12 40  1  0  0  0  0
 13 41  1  0  0  0  0
 13 42  1  0  0  0  0
 15 43  1  0  0  0  0
 15 44  1  0  0  0  0
 16 45  1  0  0  0  0
 16 46  1  0  0  0  0
 18 47  1  0  0  0  0
 22 48  1  0  0  0  0
 22 49  1  0  0  0  0
 23 50  1  0  0  0  0
 23 51  1  0  0  0  0
 25 52  1  0  0  0  0
 25 53  1  0  0  0  0
 26 54  1  0  0  0  0
 26 55  1  0  0  0  0
 29 56  1  0  0  0  0
 29 57  1  0  0  0  0
 58 64  1  0  0  0  0
 64 65  1  0  0  0  0
 60 66  1  0  0  0  0
 61 70  1  0  0  0  0
 68 71  1  0  0  0  0
 67 73  1  0  0  0  0
 70 73  3  0  0  0  0
 62 74  1  0  0  0  0
 71 74  3  0  0  0  0
 67 75  1  0  0  0  0
 72 75  2  0  0  0  0
 62 76  1  0  0  0  0
 68 76  1  0  0  0  0
 72 76  2  0  0  0  0
 58 77  1  0  0  0  0
 61 77  1  0  0  0  0
 58 78  1  0  0  0  0
 59 78  1  0  0  0  0
 59 79  1  0  0  0  0
 60 79  1  0  0  0  0
 59 80  1  0  0  0  0
 61 80  1  0  0  0  0
 59 81  1  0  0  0  0
 62 81  1  0  0  0  0
 61 82  1  0  0  0  0
 63 82  1  0  0  0  0
 62 83  1  0  0  0  0
 63 83  1  0  0  0  0
 64 84  2  0  0  0  0
 65 85  1  0  0  0  0
 66 85  1  0  0  0  0
 60 86  1  0  0  0  0
 66 86  1  0  0  0  0
 65 87  1  0  0  0  0
 67 87  1  0  0  0  0
 65 88  1  0  0  0  0
 68 88  1  0  0  0  0
 67 89  1  0  0  0  0
 69 89  1  0  0  0  0
 68 90  1  0  0  0  0
 69 90  1  0  0  0  0
M  END
