 xtb: 6.7.1pre (5071a88)
          09012620323D

 33 40  0     0  0            999 V2000
   -2.0000   -2.4481    4.2058 Ti  0  0  0  0  0  0  0  0  0  0  0  0
    0.4752   -1.7347    2.8758 Ti  0  0  0  0  0  0  0  0  0  0  0  0
    1.9181   -3.3328    0.8328 Ti  0  0  0  0  0  0  0  0  0  0  0  0
   -2.3932   -0.1595    2.4428 Ti  0  0  0  0  0  0  0  0  0  0  0  0
    2.3690    0.6188    3.2002 Ti  0  0  0  0  0  0  0  0  0  0  0  0
   -0.4008    0.8428    4.5622 Ti  0  0  0  0  0  0  0  0  0  0  0  0
   -1.8805   -3.4208    0.8857 Ti  0  0  0  0  0  0  0  0  0  0  0  0
   -0.4030   -1.1779   -0.6771 Ti  0  0  0  0  0  0  0  0  0  0  0  0
    1.8975   -2.0849   -2.0678 Ti  0  0  0  0  0  0  0  0  0  0  0  0
   -1.9057    1.3161   -0.2642 Ti  0  0  0  0  0  0  0  0  0  0  0  0
    2.4774    0.2818    0.2227 Ti  0  0  0  0  0  0  0  0  0  0  0  0
    0.7605    1.4864   -1.9148 Ti  0  0  0  0  0  0  0  0  0  0  0  0
   -3.7565    1.0095    1.4443 C   0  0  0  0  0  0  0  0  0  0  0  0
    4.2403    0.4059    1.2878 C   0  0  0  0  0  0  0  0  0  0  0  0
    0.4264    1.9812    1.4002 C   0  0  0  0  0  0  0  0  0  0  0  0
   -3.7796    1.7275    0.4299 C   0  0  0  0  0  0  0  0  0  0  0  0
    4.2993    0.6980    2.4948 C   0  0  0  0  0  0  0  0  0  0  0  0
   -0.8032    2.2022    1.1263 C   0  0  0  0  0  0  0  0  0  0  0  0
    1.7178    1.7469    1.6402 C   0  0  0  0  0  0  0  0  0  0  0  0
   -3.0846   -1.7763    2.9441 O   0  0  0  0  0  0  0  0  0  0  0  0
   -0.2549   -2.2091    4.4105 O   0  0  0  0  0  0  0  0  0  0  0  0
    0.6144   -3.2713    2.0663 O   0  0  0  0  0  0  0  0  0  0  0  0
   -0.7420   -0.7814    2.1415 O   0  0  0  0  0  0  0  0  0  0  0  0
    2.0470   -1.0780    2.7355 O   0  0  0  0  0  0  0  0  0  0  0  0
   -2.0466    0.5543    3.9830 O   0  0  0  0  0  0  0  0  0  0  0  0
    1.3164    0.8952    4.5698 O   0  0  0  0  0  0  0  0  0  0  0  0
   -0.6470   -2.8773   -0.2891 O   0  0  0  0  0  0  0  0  0  0  0  0
    0.2657   -1.3100   -2.2857 O   0  0  0  0  0  0  0  0  0  0  0  0
    2.7087   -2.6602   -0.5872 O   0  0  0  0  0  0  0  0  0  0  0  0
   -1.9408   -0.5262   -0.2154 O   0  0  0  0  0  0  0  0  0  0  0  0
    0.9343   -0.6003    0.2158 O   0  0  0  0  0  0  0  0  0  0  0  0
   -0.9555    1.5443   -1.7200 O   0  0  0  0  0  0  0  0  0  0  0  0
    2.3866    0.9903   -1.3600 O   0  0  0  0  0  0  0  0  0  0  0  0
  1  7  1  0  0  0  0
  4 13  1  0  0  0  0
 11 14  1  0  0  0  0
 10 16  1  0  0  0  0
 13 16  3  0  0  0  0
  5 17  1  0  0  0  0
 14 17  3  0  0  0  0
 10 18  1  0  0  0  0
 15 18  2  0  0  0  0
  5 19  1  0  0  0  0
 11 19  1  0  0  0  0
 15 19  2  0  0  0  0
  1 20  1  0  0  0  0
  4 20  1  0  0  0  0
  1 21  1  0  0  0  0
  2 21  1  0  0  0  0
  2 22  1  0  0  0  0
  3 22  1  0  0  0  0
  2 23  1  0  0  0  0
  4 23  1  0  0  0  0
  2 24  1  0  0  0  0
  5 24  1  0  0  0  0
  4 25  1  0  0  0  0
  6 25  1  0  0  0  0
  5 26  1  0  0  0  0
  6 26  1  0  0  0  0
  7 27  1  0  0  0  0
  8 27  1  0  0  0  0
  8 28  1  0  0  0  0
  9 28  1  0  0  0  0
  3 29  1  0  0  0  0
  9 29  1  0  0  0  0
  8 30  1  0  0  0  0
 10 30  1  0  0  0  0
  8 31  1  0  0  0  0
 11 31  1  0  0  0  0
 10 32  1  0  0  0  0
 12 32  1  0  0  0  0
 11 33  1  0  0  0  0
 12 33  1  0  0  0  0
M  END
