 xtb: 6.7.1pre (5071a88)
          08312620553D

 90105  0     0  0            999 V2000
   -3.4123    2.9899    7.5086 C   0  0  0  0  0  0  0  0  0  0  0  0
   -2.7479    3.0156    6.1211 C   0  0  0  0  0  0  0  0  0  0  0  0
   -3.7955    3.3805    5.0534 C   0  0  0  0  0  0  0  0  0  0  0  0
   -1.6579    4.1058    6.1198 C   0  0  0  0  0  0  0  0  0  0  0  0
   -2.1741    1.6322    5.8196 C   0  0  0  0  0  0  0  0  0  0  0  0
   -0.8541    1.4908    5.7098 N   0  0  0  0  0  0  0  0  0  0  0  0
   -0.4308    0.2493    5.4668 C   0  0  0  0  0  0  0  0  0  0  0  0
   -1.2353   -0.8062    5.3320 N   0  0  0  0  0  0  0  0  0  0  0  0
   -2.5411   -0.5858    5.4484 C   0  0  0  0  0  0  0  0  0  0  0  0
   -3.0381    0.6227    5.6984 N   0  0  0  0  0  0  0  0  0  0  0  0
   -3.4174   -1.6680    5.3472 N   0  0  0  0  0  0  0  0  0  0  0  0
   -2.9005   -2.7935    4.5502 C   0  0  0  0  0  0  0  0  0  0  0  0
   -3.8924   -3.9663    4.5838 C   0  0  0  0  0  0  0  0  0  0  0  0
   -5.2022   -3.5608    4.1578 O   0  0  0  0  0  0  0  0  0  0  0  0
   -5.7050   -2.5382    5.0313 C   0  0  0  0  0  0  0  0  0  0  0  0
   -4.8040   -1.2941    5.0190 C   0  0  0  0  0  0  0  0  0  0  0  0
    1.0116    0.0132    5.3543 C   0  0  0  0  0  0  0  0  0  0  0  0
    1.5366   -1.2644    5.4217 C   0  0  0  0  0  0  0  0  0  0  0  0
    2.8479   -1.5750    5.3385 N   0  0  0  0  0  0  0  0  0  0  0  0
    3.7104   -0.5649    5.1748 C   0  0  0  0  0  0  0  0  0  0  0  0
    5.0714   -0.8508    5.0484 N   0  0  0  0  0  0  0  0  0  0  0  0
    5.9450    0.2911    5.3638 C   0  0  0  0  0  0  0  0  0  0  0  0
    7.4137   -0.0873    5.1192 C   0  0  0  0  0  0  0  0  0  0  0  0
    7.7854   -1.2694    5.8469 O   0  0  0  0  0  0  0  0  0  0  0  0
    6.9682   -2.3750    5.4309 C   0  0  0  0  0  0  0  0  0  0  0  0
    5.4780   -2.1083    5.6928 C   0  0  0  0  0  0  0  0  0  0  0  0
    3.2996    0.7079    5.0893 N   0  0  0  0  0  0  0  0  0  0  0  0
    1.9863    0.9905    5.1907 C   0  0  0  0  0  0  0  0  0  0  0  0
    1.6685    2.3530    5.0315 N   0  0  0  0  0  0  0  0  0  0  0  0
   -3.8263    3.9712    7.7671 H   0  0  0  0  0  0  0  0  0  0  0  0
   -4.2339    2.2652    7.5514 H   0  0  0  0  0  0  0  0  0  0  0  0
   -2.6922    2.7144    8.2882 H   0  0  0  0  0  0  0  0  0  0  0  0
   -3.3561    3.3742    4.0489 H   0  0  0  0  0  0  0  0  0  0  0  0
   -4.2100    4.3794    5.2313 H   0  0  0  0  0  0  0  0  0  0  0  0
   -4.6350    2.6754    5.0485 H   0  0  0  0  0  0  0  0  0  0  0  0
   -1.1506    4.1638    5.1495 H   0  0  0  0  0  0  0  0  0  0  0  0
   -2.0866    5.0932    6.3272 H   0  0  0  0  0  0  0  0  0  0  0  0
   -0.8952    3.9134    6.8836 H   0  0  0  0  0  0  0  0  0  0  0  0
   -1.9398   -3.1533    4.9372 H   0  0  0  0  0  0  0  0  0  0  0  0
   -2.7625   -2.4704    3.5101 H   0  0  0  0  0  0  0  0  0  0  0  0
   -3.5536   -4.7582    3.9083 H   0  0  0  0  0  0  0  0  0  0  0  0
   -3.9614   -4.3946    5.5911 H   0  0  0  0  0  0  0  0  0  0  0  0
   -5.7968   -2.9477    6.0446 H   0  0  0  0  0  0  0  0  0  0  0  0
   -6.7096   -2.2722    4.6877 H   0  0  0  0  0  0  0  0  0  0  0  0
   -5.2093   -0.5773    5.7431 H   0  0  0  0  0  0  0  0  0  0  0  0
   -4.8330   -0.8409    4.0194 H   0  0  0  0  0  0  0  0  0  0  0  0
    0.8927   -2.1313    5.5563 H   0  0  0  0  0  0  0  0  0  0  0  0
    5.7132    1.1612    4.7381 H   0  0  0  0  0  0  0  0  0  0  0  0
    5.8191    0.5695    6.4184 H   0  0  0  0  0  0  0  0  0  0  0  0
    8.0668    0.7258    5.4516 H   0  0  0  0  0  0  0  0  0  0  0  0
    7.6046   -0.2524    4.0518 H   0  0  0  0  0  0  0  0  0  0  0  0
    7.1515   -2.5728    4.3678 H   0  0  0  0  0  0  0  0  0  0  0  0
    7.2917   -3.2565    5.9934 H   0  0  0  0  0  0  0  0  0  0  0  0
    4.9097   -2.9622    5.3055 H   0  0  0  0  0  0  0  0  0  0  0  0
    5.3126   -2.0360    6.7757 H   0  0  0  0  0  0  0  0  0  0  0  0
    0.9987    2.6128    5.7561 H   0  0  0  0  0  0  0  0  0  0  0  0
    1.1772    2.4717    4.1496 H   0  0  0  0  0  0  0  0  0  0  0  0
   -3.0000   -2.6000    1.2500 Ti  0  0  0  0  0  0  0  0  0  0  0  0
    0.0000   -2.6000    1.2500 Ti  0  0  0  0  0  0  0  0  0  0  0  0
    3.0000   -2.6000    1.2500 Ti  0  0  0  0  0  0  0  0  0  0  0  0
   -1.5000    0.0000    1.2500 Ti  0  0  0  0  0  0  0  0  0  0  0  0
    1.5000    0.0000    1.2500 Ti  0  0  0  0  0  0  0  0  0  0  0  0
    0.0000    2.6000    1.2500 Ti  0  0  0  0  0  0  0  0  0  0  0  0
   -3.0000   -2.6000   -1.2500 Ti  0  0  0  0  0  0  0  0  0  0  0  0
    0.0000   -2.6000   -1.2500 Ti  0  0  0  0  0  0  0  0  0  0  0  0
    3.0000   -2.6000   -1.2500 Ti  0  0  0  0  0  0  0  0  0  0  0  0
   -1.5000    0.0000   -1.2500 Ti  0  0  0  0  0  0  0  0  0  0  0  0
    1.5000    0.0000   -1.2500 Ti  0  0  0  0  0  0  0  0  0  0  0  0
    0.0000    2.6000   -1.2500 Ti  0  0  0  0  0  0  0  0  0  0  0  0
   -1.5000   -1.3000    0.0000 C   0  0  0  0  0  0  0  0  0  0  0  0
    1.5000   -1.3000    0.0000 C   0  0  0  0  0  0  0  0  0  0  0  0
    0.0000    1.3000    0.0000 C   0  0  0  0  0  0  0  0  0  0  0  0
   -3.0000    0.0000    0.0000 C   0  0  0  0  0  0  0  0  0  0  0  0
    3.0000    0.0000    0.0000 C   0  0  0  0  0  0  0  0  0  0  0  0
   -1.5000    2.6000    0.0000 C   0  0  0  0  0  0  0  0  0  0  0  0
    1.5000    2.6000    0.0000 C   0  0  0  0  0  0  0  0  0  0  0  0
   -3.0000   -2.6000    2.4500 O   0  0  0  0  0  0  0  0  0  0  0  0
    0.0000   -2.6000    2.4500 O   0  0  0  0  0  0  0  0  0  0  0  0
    3.0000   -2.6000    2.4500 O   0  0  0  0  0  0  0  0  0  0  0  0
   -1.5000    0.0000    2.4500 O   0  0  0  0  0  0  0  0  0  0  0  0
    1.5000    0.0000    2.4500 O   0  0  0  0  0  0  0  0  0  0  0  0
   -1.5000    2.6000    2.4500 O   0  0  0  0  0  0  0  0  0  0  0  0
    1.5000    2.6000    2.4500 O   0  0  0  0  0  0  0  0  0  0  0  0
   -3.0000   -2.6000   -2.4500 O   0  0  0  0  0  0  0  0  0  0  0  0
    0.0000   -2.6000   -2.4500 O   0  0  0  0  0  0  0  0  0  0  0  0
    3.0000   -2.6000   -2.4500 O   0  0  0  0  0  0  0  0  0  0  0  0
   -1.5000    0.0000   -2.4500 O   0  0  0  0  0  0  0  0  0  0  0  0
    1.5000    0.0000   -2.4500 O   0  0  0  0  0  0  0  0  0  0  0  0
   -1.5000    2.6000   -2.4500 O   0  0  0  0  0  0  0  0  0  0  0  0
    1.5000    2.6000   -2.4500 O   0  0  0  0  0  0  0  0  0  0  0  0
  1  2  1  0  0  0  0
  2  3  1  0  0  0  0
  2  4  1  0  0  0  0
  2  5  1  0  0  0  0
  5  6  4  0  0  0  0
  6  7  4  0  0  0  0
  7  8  4  0  0  0  0
  8  9  4  0  0  0  0
  5 10  4  0  0  0  0
  9 10  4  0  0  0  0
  9 11  1  0  0  0  0
 11 12  1  0  0  0  0
 12 13  1  0  0  0  0
 13 14  1  0  0  0  0
 14 15  1  0  0  0  0
 11 16  1  0  0  0  0
 15 16  1  0  0  0  0
  7 17  1  0  0  0  0
 17 18  4  0  0  0  0
 18 19  4  0  0  0  0
 19 20  4  0  0  0  0
 20 21  1  0  0  0  0
 21 22  1  0  0  0  0
 22 23  1  0  0  0  0
 23 24  1  0  0  0  0
 24 25  1  0  0  0  0
 21 26  1  0  0  0  0
 25 26  1  0  0  0  0
 20 27  4  0  0  0  0
 17 28  4  0  0  0  0
 27 28  4  0  0  0  0
 28 29  1  0  0  0  0
  1 30  1  0  0  0  0
  1 31  1  0  0  0  0
  1 32  1  0  0  0  0
  3 33  1  0  0  0  0
  3 34  1  0  0  0  0
  3 35  1  0  0  0  0
  4 36  1  0  0  0  0
  4 37  1  0  0  0  0
  4 38  1  0  0  0  0
 12 39  1  0  0  0  0
 12 40  1  0  0  0  0
 13 41  1  0  0  0  0
 13 42  1  0  0  0  0
 15 43  1  0  0  0  0
 15 44  1  0  0  0  0
 16 45  1  0  0  0  0
 16 46  1  0  0  0  0
 18 47  1  0  0  0  0
 22 48  1  0  0  0  0
 22 49  1  0  0  0  0
 23 50  1  0  0  0  0
 23 51  1  0  0  0  0
 25 52  1  0  0  0  0
 25 53  1  0  0  0  0
 26 54  1  0  0  0  0
 26 55  1  0  0  0  0
 29 56  1  0  0  0  0
 29 57  1  0  0  0  0
 58 59  1  0  0  0  0
 59 60  1  0  0  0  0
 58 64  1  0  0  0  0
 59 65  1  0  0  0  0
 64 65  1  0  0  0  0
 60 66  1  0  0  0  0
 65 66  1  0  0  0  0
 58 70  1  0  0  0  0
 61 70  1  0  0  0  0
 67 70  1  0  0  0  0
 62 71  1  0  0  0  0
 68 71  1  0  0  0  0
 63 72  1  0  0  0  0
 69 72  1  0  0  0  0
 61 73  1  0  0  0  0
 67 73  1  0  0  0  0
 70 73  1  0  0  0  0
 62 74  1  0  0  0  0
 68 74  1  0  0  0  0
 71 74  1  0  0  0  0
 63 75  1  0  0  0  0
 69 75  1  0  0  0  0
 72 75  1  0  0  0  0
 63 76  1  0  0  0  0
 69 76  1  0  0  0  0
 72 76  1  0  0  0  0
 40 77  1  0  0  0  0
 58 77  2  0  0  0  0
 59 78  2  0  0  0  0
 60 79  2  0  0  0  0
 61 80  2  0  0  0  0
 62 81  2  0  0  0  0
 63 82  1  0  0  0  0
 75 82  1  0  0  0  0
 63 83  1  0  0  0  0
 76 83  1  0  0  0  0
 64 84  2  0  0  0  0
 65 85  2  0  0  0  0
 66 86  2  0  0  0  0
 67 87  2  0  0  0  0
 68 88  2  0  0  0  0
 69 89  1  0  0  0  0
 75 89  1  0  0  0  0
 69 90  1  0  0  0  0
 76 90  1  0  0  0  0
M  END
