 xtb: 6.7.1pre (5071a88)
          08312621533D

 90101  0     0  0            999 V2000
   -1.9428   -4.0281    9.7150 C   0  0  0  0  0  0  0  0  0  0  0  0
   -2.8847   -2.9966    9.0630 C   0  0  0  0  0  0  0  0  0  0  0  0
   -4.1959   -2.9729    9.8730 C   0  0  0  0  0  0  0  0  0  0  0  0
   -3.1867   -3.4288    7.6192 C   0  0  0  0  0  0  0  0  0  0  0  0
   -2.2429   -1.6111    9.0273 C   0  0  0  0  0  0  0  0  0  0  0  0
   -0.9162   -1.5310    8.9488 N   0  0  0  0  0  0  0  0  0  0  0  0
   -0.4209   -0.2972    8.8606 C   0  0  0  0  0  0  0  0  0  0  0  0
   -1.1601    0.8150    8.8593 N   0  0  0  0  0  0  0  0  0  0  0  0
   -2.4773    0.6523    8.9346 C   0  0  0  0  0  0  0  0  0  0  0  0
   -3.0477   -0.5476    9.0015 N   0  0  0  0  0  0  0  0  0  0  0  0
   -3.2863    1.7688    8.9023 N   0  0  0  0  0  0  0  0  0  0  0  0
   -4.7234    1.5738    9.1203 C   0  0  0  0  0  0  0  0  0  0  0  0
   -5.4485    2.9220    8.9927 C   0  0  0  0  0  0  0  0  0  0  0  0
   -5.0018    3.9094    9.9346 O   0  0  0  0  0  0  0  0  0  0  0  0
   -3.6446    3.7227   10.3621 C   0  0  0  0  0  0  0  0  0  0  0  0
   -2.7402    3.0702    9.3027 C   0  0  0  0  0  0  0  0  0  0  0  0
    1.0346   -0.1584    8.7796 C   0  0  0  0  0  0  0  0  0  0  0  0
    1.8784   -1.1788    9.1754 C   0  0  0  0  0  0  0  0  0  0  0  0
    3.2271   -1.1247    9.1537 N   0  0  0  0  0  0  0  0  0  0  0  0
    3.7912    0.0037    8.7057 C   0  0  0  0  0  0  0  0  0  0  0  0
    5.1689    0.0772    8.6413 N   0  0  0  0  0  0  0  0  0  0  0  0
    5.7992    1.3969    8.5256 C   0  0  0  0  0  0  0  0  0  0  0  0
    6.7636    1.6226    9.7017 C   0  0  0  0  0  0  0  0  0  0  0  0
    7.8031    0.6348    9.8022 O   0  0  0  0  0  0  0  0  0  0  0  0
    7.4246   -0.6473    9.2755 C   0  0  0  0  0  0  0  0  0  0  0  0
    5.9201   -0.9367    9.3856 C   0  0  0  0  0  0  0  0  0  0  0  0
    3.0585    1.0432    8.2865 N   0  0  0  0  0  0  0  0  0  0  0  0
    1.7146    0.9703    8.3375 C   0  0  0  0  0  0  0  0  0  0  0  0
    1.0444    2.0834    7.7920 N   0  0  0  0  0  0  0  0  0  0  0  0
   -2.4166   -5.0149    9.7725 H   0  0  0  0  0  0  0  0  0  0  0  0
   -1.6704   -3.7284   10.7339 H   0  0  0  0  0  0  0  0  0  0  0  0
   -1.0135   -4.1479    9.1457 H   0  0  0  0  0  0  0  0  0  0  0  0
   -4.6420   -3.9725    9.9321 H   0  0  0  0  0  0  0  0  0  0  0  0
   -4.9434   -2.3113    9.4198 H   0  0  0  0  0  0  0  0  0  0  0  0
   -4.0228   -2.6229   10.8976 H   0  0  0  0  0  0  0  0  0  0  0  0
   -2.2726   -3.4703    7.0151 H   0  0  0  0  0  0  0  0  0  0  0  0
   -3.6496   -4.4218    7.5917 H   0  0  0  0  0  0  0  0  0  0  0  0
   -3.8718   -2.7285    7.1267 H   0  0  0  0  0  0  0  0  0  0  0  0
   -5.1377    0.8802    8.3792 H   0  0  0  0  0  0  0  0  0  0  0  0
   -4.8952    1.1638   10.1237 H   0  0  0  0  0  0  0  0  0  0  0  0
   -6.5245    2.7884    9.1424 H   0  0  0  0  0  0  0  0  0  0  0  0
   -5.3065    3.3373    7.9880 H   0  0  0  0  0  0  0  0  0  0  0  0
   -3.6648    3.1116   11.2723 H   0  0  0  0  0  0  0  0  0  0  0  0
   -3.2503    4.7056   10.6391 H   0  0  0  0  0  0  0  0  0  0  0  0
   -1.7260    3.0057    9.7119 H   0  0  0  0  0  0  0  0  0  0  0  0
   -2.7012    3.7086    8.4124 H   0  0  0  0  0  0  0  0  0  0  0  0
    1.4851   -2.1224    9.5482 H   0  0  0  0  0  0  0  0  0  0  0  0
    6.3642    1.4162    7.5860 H   0  0  0  0  0  0  0  0  0  0  0  0
    5.0879    2.2289    8.4940 H   0  0  0  0  0  0  0  0  0  0  0  0
    7.2499    2.5988    9.6078 H   0  0  0  0  0  0  0  0  0  0  0  0
    6.2137    1.6213   10.6502 H   0  0  0  0  0  0  0  0  0  0  0  0
    7.9962   -1.4064    9.8190 H   0  0  0  0  0  0  0  0  0  0  0  0
    7.7462   -0.6833    8.2279 H   0  0  0  0  0  0  0  0  0  0  0  0
    5.7207   -1.9370    8.9839 H   0  0  0  0  0  0  0  0  0  0  0  0
    5.6310   -0.9154   10.4443 H   0  0  0  0  0  0  0  0  0  0  0  0
    0.2308    2.2862    8.3744 H   0  0  0  0  0  0  0  0  0  0  0  0
    0.6746    1.8235    6.8812 H   0  0  0  0  0  0  0  0  0  0  0  0
   -2.1419   -3.0088    2.1197 Ti  0  0  0  0  0  0  0  0  0  0  0  0
    0.2890   -1.6948    1.4324 Ti  0  0  0  0  0  0  0  0  0  0  0  0
    1.9031   -3.0677   -0.7293 Ti  0  0  0  0  0  0  0  0  0  0  0  0
   -2.5215   -0.2519    1.3037 Ti  0  0  0  0  0  0  0  0  0  0  0  0
    2.1420    0.4995    2.2044 Ti  0  0  0  0  0  0  0  0  0  0  0  0
   -0.6814    0.1896    3.6812 Ti  0  0  0  0  0  0  0  0  0  0  0  0
   -2.0368   -3.0777   -1.2005 Ti  0  0  0  0  0  0  0  0  0  0  0  0
   -0.6053   -0.7709   -2.0351 Ti  0  0  0  0  0  0  0  0  0  0  0  0
    1.9455   -1.5873   -3.4124 Ti  0  0  0  0  0  0  0  0  0  0  0  0
   -1.8782    1.7466   -1.2400 Ti  0  0  0  0  0  0  0  0  0  0  0  0
    2.4125    0.4542   -0.7742 Ti  0  0  0  0  0  0  0  0  0  0  0  0
    0.8177    1.8385   -2.9400 Ti  0  0  0  0  0  0  0  0  0  0  0  0
   -3.6784    1.2814    0.6007 C   0  0  0  0  0  0  0  0  0  0  0  0
    4.1282    0.4828    0.3873 C   0  0  0  0  0  0  0  0  0  0  0  0
    0.4555    2.2672    0.3497 C   0  0  0  0  0  0  0  0  0  0  0  0
   -3.6667    2.1188   -0.3139 C   0  0  0  0  0  0  0  0  0  0  0  0
    4.1160    0.6322    1.6214 C   0  0  0  0  0  0  0  0  0  0  0  0
   -0.6352    2.7410   -0.1189 C   0  0  0  0  0  0  0  0  0  0  0  0
    1.6301    1.7810    0.7342 C   0  0  0  0  0  0  0  0  0  0  0  0
   -3.0935   -1.9569    1.0379 O   0  0  0  0  0  0  0  0  0  0  0  0
   -0.4872   -2.6058    2.7012 O   0  0  0  0  0  0  0  0  0  0  0  0
    0.3141   -2.8889    0.1450 O   0  0  0  0  0  0  0  0  0  0  0  0
   -0.8008   -0.4359    0.9712 O   0  0  0  0  0  0  0  0  0  0  0  0
    1.9029   -1.1583    1.4694 O   0  0  0  0  0  0  0  0  0  0  0  0
   -2.3227   -0.1139    3.0248 O   0  0  0  0  0  0  0  0  0  0  0  0
    1.0138    0.4416    3.5688 O   0  0  0  0  0  0  0  0  0  0  0  0
   -1.7720   -4.5879   -1.6528 O   0  0  0  0  0  0  0  0  0  0  0  0
    0.1906   -1.1892   -3.5340 O   0  0  0  0  0  0  0  0  0  0  0  0
    2.8314   -2.1702   -1.9180 O   0  0  0  0  0  0  0  0  0  0  0  0
   -2.0546   -0.2244   -1.3375 O   0  0  0  0  0  0  0  0  0  0  0  0
    0.7685   -0.3906   -1.0637 O   0  0  0  0  0  0  0  0  0  0  0  0
   -0.9000    1.6493   -2.8186 O   0  0  0  0  0  0  0  0  0  0  0  0
    2.4153    1.3575   -2.2641 O   0  0  0  0  0  0  0  0  0  0  0  0
  1  2  1  0  0  0  0
  2  3  1  0  0  0  0
  2  4  1  0  0  0  0
  2  5  1  0  0  0  0
  5  6  4  0  0  0  0
  6  7  4  0  0  0  0
  7  8  4  0  0  0  0
  8  9  4  0  0  0  0
  5 10  4  0  0  0  0
  9 10  4  0  0  0  0
  9 11  4  0  0  0  0
 11 12  1  0  0  0  0
 12 13  1  0  0  0  0
 13 14  1  0  0  0  0
 14 15  1  0  0  0  0
 11 16  1  0  0  0  0
 15 16  1  0  0  0  0
  7 17  1  0  0  0  0
 17 18  4  0  0  0  0
 18 19  4  0  0  0  0
 19 20  4  0  0  0  0
 20 21  4  0  0  0  0
 21 22  1  0  0  0  0
 22 23  1  0  0  0  0
 23 24  1  0  0  0  0
 24 25  1  0  0  0  0
 21 26  1  0  0  0  0
 25 26  1  0  0  0  0
 20 27  4  0  0  0  0
 17 28  4  0  0  0  0
 27 28  4  0  0  0  0
 28 29  1  0  0  0  0
  1 30  1  0  0  0  0
  1 31  1  0  0  0  0
  1 32  1  0  0  0  0
  3 33  1  0  0  0  0
  3 34  1  0  0  0  0
  3 35  1  0  0  0  0
  4 36  1  0  0  0  0
  4 37  1  0  0  0  0
  4 38  1  0  0  0  0
 12 39  1  0  0  0  0
 12 40  1  0  0  0  0
 13 41  1  0  0  0  0
 13 42  1  0  0  0  0
 15 43  1  0  0  0  0
 15 44  1  0  0  0  0
 16 45  1  0  0  0  0
 16 46  1  0  0  0  0
 18 47  1  0  0  0  0
 22 48  1  0  0  0  0
 22 49  1  0  0  0  0
 23 50  1  0  0  0  0
 23 51  1  0  0  0  0
 25 52  1  0  0  0  0
 25 53  1  0  0  0  0
 26 54  1  0  0  0  0
 26 55  1  0  0  0  0
 29 56  1  0  0  0  0
 29 57  1  0  0  0  0
 58 64  1  0  0  0  0
 64 65  1  0  0  0  0
 60 66  1  0  0  0  0
 61 70  1  0  0  0  0
 68 71  1  0  0  0  0
 67 73  1  0  0  0  0
 70 73  3  0  0  0  0
 62 74  1  0  0  0  0
 71 74  3  0  0  0  0
 67 75  1  0  0  0  0
 72 75  2  0  0  0  0
 62 76  1  0  0  0  0
 68 76  1  0  0  0  0
 72 76  2  0  0  0  0
 58 77  1  0  0  0  0
 61 77  1  0  0  0  0
 58 78  1  0  0  0  0
 59 78  1  0  0  0  0
 59 79  1  0  0  0  0
 60 79  1  0  0  0  0
 59 80  1  0  0  0  0
 61 80  1  0  0  0  0
 59 81  1  0  0  0  0
 62 81  1  0  0  0  0
 61 82  1  0  0  0  0
 63 82  1  0  0  0  0
 62 83  1  0  0  0  0
 63 83  1  0  0  0  0
 64 84  2  0  0  0  0
 65 85  1  0  0  0  0
 66 85  1  0  0  0  0
 60 86  1  0  0  0  0
 66 86  1  0  0  0  0
 65 87  1  0  0  0  0
 67 87  1  0  0  0  0
 65 88  1  0  0  0  0
 68 88  1  0  0  0  0
 67 89  1  0  0  0  0
 69 89  1  0  0  0  0
 68 90  1  0  0  0  0
 69 90  1  0  0  0  0
M  END
