 xtb: 6.7.1pre (5071a88)
          08312620523D

153165  0     0  0            999 V2000
  -11.3003   -1.3880    4.3994 C   0  0  0  0  0  0  0  0  0  0  0  0
  -10.5687   -2.0274    5.4375 O   0  0  0  0  0  0  0  0  0  0  0  0
   -9.3715   -1.3125    5.7453 C   0  0  0  0  0  0  0  0  0  0  0  0
   -8.6247   -2.0363    6.8652 C   0  0  0  0  0  0  0  0  0  0  0  0
   -7.4296   -1.3453    7.2345 O   0  0  0  0  0  0  0  0  0  0  0  0
   -6.3120   -1.6116    6.3568 C   0  0  0  0  0  0  0  0  0  0  0  0
   -5.4263   -2.6478    7.1006 C   0  0  0  0  0  0  0  0  0  0  0  0
   -4.3640   -3.4279    6.3032 C   0  0  0  0  0  0  0  0  0  0  0  0
   -4.3344   -3.1801    4.7703 C   0  0  0  0  0  0  0  0  0  0  0  0
   -3.8542   -1.8191    4.2808 C   0  0  0  0  0  0  0  0  0  0  0  0
   -4.8208   -0.7790    3.6862 C   0  0  0  0  0  0  0  0  0  0  0  0
   -5.8734   -1.4065    2.7612 C   0  0  0  0  0  0  0  0  0  0  0  0
   -5.3529    0.2497    4.7241 C   0  0  0  0  0  0  0  0  0  0  0  0
   -6.6421    0.7150    4.2367 O   0  0  0  0  0  0  0  0  0  0  0  0
   -4.4834    1.5630    4.8613 C   0  0  0  0  0  0  0  0  0  0  0  0
   -5.0493    2.6554    4.9736 O   0  0  0  0  0  0  0  0  0  0  0  0
   -2.9161    1.4956    4.9393 C   0  0  0  0  0  0  0  0  0  0  0  0
   -2.3099    0.5468    4.4682 O   0  0  0  0  0  0  0  0  0  0  0  0
   -2.2433    2.5975    5.5263 N   0  0  0  0  0  0  0  0  0  0  0  0
   -2.4018    3.8606    4.7980 C   0  0  0  0  0  0  0  0  0  0  0  0
   -1.1135    4.2777    4.0564 C   0  0  0  0  0  0  0  0  0  0  0  0
   -0.2493    3.0776    3.6516 C   0  0  0  0  0  0  0  0  0  0  0  0
    0.1295    2.1956    4.8550 C   0  0  0  0  0  0  0  0  0  0  0  0
   -0.8482    2.4001    6.0159 C   0  0  0  0  0  0  0  0  0  0  0  0
   -0.6632    1.5120    7.2657 C   0  0  0  0  0  0  0  0  0  0  0  0
   -1.1296    1.8233    8.3594 O   0  0  0  0  0  0  0  0  0  0  0  0
    0.0305    0.3645    7.0403 O   0  0  0  0  0  0  0  0  0  0  0  0
   -0.2511   -0.7986    7.9078 C   0  0  0  0  0  0  0  0  0  0  0  0
   -1.4585   -1.5748    7.2287 C   0  0  0  0  0  0  0  0  0  0  0  0
   -0.9499   -1.9713    5.8205 C   0  0  0  0  0  0  0  0  0  0  0  0
   -2.5466   -0.6216    7.1601 O   0  0  0  0  0  0  0  0  0  0  0  0
   -3.0930   -0.1652    8.4144 C   0  0  0  0  0  0  0  0  0  0  0  0
   -2.0538   -2.8509    7.8806 C   0  0  0  0  0  0  0  0  0  0  0  0
   -2.9955   -3.7801    7.0213 C   0  0  0  0  0  0  0  0  0  0  0  0
    1.0670   -1.5593    8.1873 C   0  0  0  0  0  0  0  0  0  0  0  0
    2.0122   -1.8144    7.0411 C   0  0  0  0  0  0  0  0  0  0  0  0
    2.9692   -1.0028    6.5591 C   0  0  0  0  0  0  0  0  0  0  0  0
    3.2751    0.3283    7.0375 C   0  0  0  0  0  0  0  0  0  0  0  0
    4.1820    1.1901    6.5466 C   0  0  0  0  0  0  0  0  0  0  0  0
    5.0800    0.9837    5.4296 C   0  0  0  0  0  0  0  0  0  0  0  0
    5.9303    1.8887    4.9016 C   0  0  0  0  0  0  0  0  0  0  0  0
    6.0631    3.3246    5.3409 C   0  0  0  0  0  0  0  0  0  0  0  0
    6.8343    1.4911    3.7445 C   0  0  0  0  0  0  0  0  0  0  0  0
    8.3536    1.5682    4.0427 C   0  0  0  0  0  0  0  0  0  0  0  0
    9.1206    1.2371    2.7585 C   0  0  0  0  0  0  0  0  0  0  0  0
    8.7347    0.6477    5.2312 C   0  0  0  0  0  0  0  0  0  0  0  0
   10.2138    0.6388    5.6605 C   0  0  0  0  0  0  0  0  0  0  0  0
   11.0535    0.0686    4.6589 O   0  0  0  0  0  0  0  0  0  0  0  0
   11.1053   -1.3515    4.7041 C   0  0  0  0  0  0  0  0  0  0  0  0
   10.7036    2.0440    6.0497 C   0  0  0  0  0  0  0  0  0  0  0  0
    9.9578    2.8859    6.5561 O   0  0  0  0  0  0  0  0  0  0  0  0
   12.1702    2.3376    5.8621 C   0  0  0  0  0  0  0  0  0  0  0  0
   -5.6178   -0.2572    6.1530 C   0  0  0  0  0  0  0  0  0  0  0  0
  -11.5951   -0.3791    4.7037 H   0  0  0  0  0  0  0  0  0  0  0  0
  -10.7063   -1.3470    3.4812 H   0  0  0  0  0  0  0  0  0  0  0  0
  -12.2037   -1.9722    4.2050 H   0  0  0  0  0  0  0  0  0  0  0  0
   -8.7465   -1.2406    4.8488 H   0  0  0  0  0  0  0  0  0  0  0  0
   -9.6136   -0.2915    6.0640 H   0  0  0  0  0  0  0  0  0  0  0  0
   -8.4114   -3.0782    6.5971 H   0  0  0  0  0  0  0  0  0  0  0  0
   -9.2670   -2.0762    7.7522 H   0  0  0  0  0  0  0  0  0  0  0  0
   -6.6865   -2.0220    5.4210 H   0  0  0  0  0  0  0  0  0  0  0  0
   -6.1086   -3.3976    7.5307 H   0  0  0  0  0  0  0  0  0  0  0  0
   -4.9922   -2.2045    7.9933 H   0  0  0  0  0  0  0  0  0  0  0  0
   -4.8132   -4.4392    6.2928 H   0  0  0  0  0  0  0  0  0  0  0  0
   -5.3140   -3.4257    4.3476 H   0  0  0  0  0  0  0  0  0  0  0  0
   -3.6610   -3.9366    4.3426 H   0  0  0  0  0  0  0  0  0  0  0  0
   -3.3357   -1.3470    5.0997 H   0  0  0  0  0  0  0  0  0  0  0  0
   -3.1060   -2.0142    3.4994 H   0  0  0  0  0  0  0  0  0  0  0  0
   -4.2089   -0.1853    2.9902 H   0  0  0  0  0  0  0  0  0  0  0  0
   -5.4085   -2.1357    2.0883 H   0  0  0  0  0  0  0  0  0  0  0  0
   -6.3377   -0.6423    2.1280 H   0  0  0  0  0  0  0  0  0  0  0  0
   -6.6732   -1.9117    3.3061 H   0  0  0  0  0  0  0  0  0  0  0  0
   -6.7867    1.5962    4.6412 H   0  0  0  0  0  0  0  0  0  0  0  0
   -3.2012    3.7863    4.0554 H   0  0  0  0  0  0  0  0  0  0  0  0
   -2.6813    4.6333    5.5222 H   0  0  0  0  0  0  0  0  0  0  0  0
   -0.5214    4.9352    4.7060 H   0  0  0  0  0  0  0  0  0  0  0  0
   -1.3737    4.8762    3.1758 H   0  0  0  0  0  0  0  0  0  0  0  0
    0.6601    3.4198    3.1449 H   0  0  0  0  0  0  0  0  0  0  0  0
   -0.8024    2.4733    2.9219 H   0  0  0  0  0  0  0  0  0  0  0  0
    1.1418    2.4494    5.1942 H   0  0  0  0  0  0  0  0  0  0  0  0
    0.1782    1.1489    4.5362 H   0  0  0  0  0  0  0  0  0  0  0  0
   -0.5762    3.3788    6.4465 H   0  0  0  0  0  0  0  0  0  0  0  0
   -0.5442   -0.4291    8.8918 H   0  0  0  0  0  0  0  0  0  0  0  0
   -0.1394   -2.6994    5.8854 H   0  0  0  0  0  0  0  0  0  0  0  0
   -0.6046   -1.1151    5.2372 H   0  0  0  0  0  0  0  0  0  0  0  0
   -1.6910   -2.4695    5.2090 H   0  0  0  0  0  0  0  0  0  0  0  0
   -3.5373    0.8211    8.2495 H   0  0  0  0  0  0  0  0  0  0  0  0
   -2.3790   -0.0891    9.2318 H   0  0  0  0  0  0  0  0  0  0  0  0
   -3.8869   -0.8219    8.7595 H   0  0  0  0  0  0  0  0  0  0  0  0
   -2.5834   -2.6102    8.8078 H   0  0  0  0  0  0  0  0  0  0  0  0
   -1.2150   -3.4881    8.1906 H   0  0  0  0  0  0  0  0  0  0  0  0
   -2.3637   -4.2911    6.2823 H   0  0  0  0  0  0  0  0  0  0  0  0
   -3.2584   -4.5836    7.7283 H   0  0  0  0  0  0  0  0  0  0  0  0
    1.6182   -0.9910    8.9487 H   0  0  0  0  0  0  0  0  0  0  0  0
    0.8417   -2.5157    8.6735 H   0  0  0  0  0  0  0  0  0  0  0  0
    1.9231   -2.7938    6.5735 H   0  0  0  0  0  0  0  0  0  0  0  0
    3.5569   -1.3783    5.7251 H   0  0  0  0  0  0  0  0  0  0  0  0
    2.6943    0.6784    7.8890 H   0  0  0  0  0  0  0  0  0  0  0  0
    4.2543    2.1476    7.0573 H   0  0  0  0  0  0  0  0  0  0  0  0
    5.0744   -0.0132    4.9953 H   0  0  0  0  0  0  0  0  0  0  0  0
    6.1118    3.9840    4.4673 H   0  0  0  0  0  0  0  0  0  0  0  0
    5.2202    3.6742    5.9415 H   0  0  0  0  0  0  0  0  0  0  0  0
    6.9771    3.4610    5.9269 H   0  0  0  0  0  0  0  0  0  0  0  0
    6.5973    2.1476    2.8962 H   0  0  0  0  0  0  0  0  0  0  0  0
    6.5944    0.4747    3.4039 H   0  0  0  0  0  0  0  0  0  0  0  0
    8.5951    2.6055    4.3034 H   0  0  0  0  0  0  0  0  0  0  0  0
    8.7312    1.8126    1.9114 H   0  0  0  0  0  0  0  0  0  0  0  0
    9.0395    0.1741    2.5088 H   0  0  0  0  0  0  0  0  0  0  0  0
   10.1792    1.4956    2.8498 H   0  0  0  0  0  0  0  0  0  0  0  0
    8.1450    0.9429    6.1078 H   0  0  0  0  0  0  0  0  0  0  0  0
    8.4256   -0.3750    4.9838 H   0  0  0  0  0  0  0  0  0  0  0  0
   10.3112    0.0469    6.5810 H   0  0  0  0  0  0  0  0  0  0  0  0
   10.1185   -1.7880    4.5302 H   0  0  0  0  0  0  0  0  0  0  0  0
   11.7769   -1.6928    3.9117 H   0  0  0  0  0  0  0  0  0  0  0  0
   11.5048   -1.6900    5.6649 H   0  0  0  0  0  0  0  0  0  0  0  0
   12.4033    3.3224    6.2773 H   0  0  0  0  0  0  0  0  0  0  0  0
   12.4139    2.3415    4.7970 H   0  0  0  0  0  0  0  0  0  0  0  0
   12.7658    1.5873    6.3879 H   0  0  0  0  0  0  0  0  0  0  0  0
   -6.1880    0.5190    6.6847 H   0  0  0  0  0  0  0  0  0  0  0  0
   -4.6683   -0.2912    6.6521 H   0  0  0  0  0  0  0  0  0  0  0  0
   -3.0000   -2.6000    1.2500 Ti  0  0  0  0  0  0  0  0  0  0  0  0
    0.0000   -2.6000    1.2500 Ti  0  0  0  0  0  0  0  0  0  0  0  0
    3.0000   -2.6000    1.2500 Ti  0  0  0  0  0  0  0  0  0  0  0  0
   -1.5000    0.0000    1.2500 Ti  0  0  0  0  0  0  0  0  0  0  0  0
    1.5000    0.0000    1.2500 Ti  0  0  0  0  0  0  0  0  0  0  0  0
    0.0000    2.6000    1.2500 Ti  0  0  0  0  0  0  0  0  0  0  0  0
   -3.0000   -2.6000   -1.2500 Ti  0  0  0  0  0  0  0  0  0  0  0  0
    0.0000   -2.6000   -1.2500 Ti  0  0  0  0  0  0  0  0  0  0  0  0
    3.0000   -2.6000   -1.2500 Ti  0  0  0  0  0  0  0  0  0  0  0  0
   -1.5000    0.0000   -1.2500 Ti  0  0  0  0  0  0  0  0  0  0  0  0
    1.5000    0.0000   -1.2500 Ti  0  0  0  0  0  0  0  0  0  0  0  0
    0.0000    2.6000   -1.2500 Ti  0  0  0  0  0  0  0  0  0  0  0  0
   -1.5000   -1.3000    0.0000 C   0  0  0  0  0  0  0  0  0  0  0  0
    1.5000   -1.3000    0.0000 C   0  0  0  0  0  0  0  0  0  0  0  0
    0.0000    1.3000    0.0000 C   0  0  0  0  0  0  0  0  0  0  0  0
   -3.0000    0.0000    0.0000 C   0  0  0  0  0  0  0  0  0  0  0  0
    3.0000    0.0000    0.0000 C   0  0  0  0  0  0  0  0  0  0  0  0
   -1.5000    2.6000    0.0000 C   0  0  0  0  0  0  0  0  0  0  0  0
    1.5000    2.6000    0.0000 C   0  0  0  0  0  0  0  0  0  0  0  0
   -3.0000   -2.6000    2.4500 O   0  0  0  0  0  0  0  0  0  0  0  0
    0.0000   -2.6000    2.4500 O   0  0  0  0  0  0  0  0  0  0  0  0
    3.0000   -2.6000    2.4500 O   0  0  0  0  0  0  0  0  0  0  0  0
   -1.5000    0.0000    2.4500 O   0  0  0  0  0  0  0  0  0  0  0  0
    1.5000    0.0000    2.4500 O   0  0  0  0  0  0  0  0  0  0  0  0
   -1.5000    2.6000    2.4500 O   0  0  0  0  0  0  0  0  0  0  0  0
    1.5000    2.6000    2.4500 O   0  0  0  0  0  0  0  0  0  0  0  0
   -3.0000   -2.6000   -2.4500 O   0  0  0  0  0  0  0  0  0  0  0  0
    0.0000   -2.6000   -2.4500 O   0  0  0  0  0  0  0  0  0  0  0  0
    3.0000   -2.6000   -2.4500 O   0  0  0  0  0  0  0  0  0  0  0  0
   -1.5000    0.0000   -2.4500 O   0  0  0  0  0  0  0  0  0  0  0  0
    1.5000    0.0000   -2.4500 O   0  0  0  0  0  0  0  0  0  0  0  0
   -1.5000    2.6000   -2.4500 O   0  0  0  0  0  0  0  0  0  0  0  0
    1.5000    2.6000   -2.4500 O   0  0  0  0  0  0  0  0  0  0  0  0
  1  2  1  0  0  0  0
  2  3  1  0  0  0  0
  3  4  1  0  0  0  0
  4  5  1  0  0  0  0
  5  6  1  0  0  0  0
  6  7  1  0  0  0  0
  7  8  1  0  0  0  0
  8  9  1  0  0  0  0
  9 10  1  0  0  0  0
 10 11  1  0  0  0  0
 11 12  1  0  0  0  0
 11 13  1  0  0  0  0
 13 14  1  0  0  0  0
 13 15  1  0  0  0  0
 15 16  2  0  0  0  0
 15 17  1  0  0  0  0
 17 18  2  0  0  0  0
 17 19  1  0  0  0  0
 19 20  1  0  0  0  0
 20 21  1  0  0  0  0
 21 22  1  0  0  0  0
 22 23  1  0  0  0  0
 19 24  1  0  0  0  0
 23 24  1  0  0  0  0
 24 25  1  0  0  0  0
 25 26  2  0  0  0  0
 25 27  1  0  0  0  0
 27 28  1  0  0  0  0
 28 29  1  0  0  0  0
 29 30  1  0  0  0  0
 29 31  1  0  0  0  0
 31 32  1  0  0  0  0
 29 33  1  0  0  0  0
  8 34  1  0  0  0  0
 33 34  1  0  0  0  0
 28 35  1  0  0  0  0
 35 36  1  0  0  0  0
 36 37  2  0  0  0  0
 37 38  1  0  0  0  0
 38 39  2  0  0  0  0
 39 40  1  0  0  0  0
 40 41  2  0  0  0  0
 41 42  1  0  0  0  0
 41 43  1  0  0  0  0
 43 44  1  0  0  0  0
 44 45  1  0  0  0  0
 44 46  1  0  0  0  0
 46 47  1  0  0  0  0
 47 48  1  0  0  0  0
 48 49  1  0  0  0  0
 47 50  1  0  0  0  0
 50 51  2  0  0  0  0
 50 52  1  0  0  0  0
  6 53  1  0  0  0  0
 13 53  1  0  0  0  0
  1 54  1  0  0  0  0
  1 55  1  0  0  0  0
  1 56  1  0  0  0  0
  3 57  1  0  0  0  0
  3 58  1  0  0  0  0
  4 59  1  0  0  0  0
  4 60  1  0  0  0  0
  6 61  1  0  0  0  0
  7 62  1  0  0  0  0
  7 63  1  0  0  0  0
  8 64  1  0  0  0  0
  9 65  1  0  0  0  0
  9 66  1  0  0  0  0
 10 67  1  0  0  0  0
 10 68  1  0  0  0  0
 11 69  1  0  0  0  0
 12 70  1  0  0  0  0
 12 71  1  0  0  0  0
 12 72  1  0  0  0  0
 14 73  1  0  0  0  0
 20 74  1  0  0  0  0
 20 75  1  0  0  0  0
 21 76  1  0  0  0  0
 21 77  1  0  0  0  0
 22 78  1  0  0  0  0
 23 80  1  0  0  0  0
 23 81  1  0  0  0  0
 24 82  1  0  0  0  0
 28 83  1  0  0  0  0
 30 84  1  0  0  0  0
 30 85  1  0  0  0  0
 30 86  1  0  0  0  0
 32 87  1  0  0  0  0
 32 88  1  0  0  0  0
 32 89  1  0  0  0  0
 33 90  1  0  0  0  0
 33 91  1  0  0  0  0
 34 92  1  0  0  0  0
 34 93  1  0  0  0  0
 35 94  1  0  0  0  0
 35 95  1  0  0  0  0
 36 96  1  0  0  0  0
 37 97  1  0  0  0  0
 38 98  1  0  0  0  0
 39 99  1  0  0  0  0
 40100  1  0  0  0  0
 42101  1  0  0  0  0
 42102  1  0  0  0  0
 42103  1  0  0  0  0
 43104  1  0  0  0  0
 43105  1  0  0  0  0
 44106  1  0  0  0  0
 45107  1  0  0  0  0
 45108  1  0  0  0  0
 45109  1  0  0  0  0
 46110  1  0  0  0  0
 46111  1  0  0  0  0
 47112  1  0  0  0  0
 49113  1  0  0  0  0
 49114  1  0  0  0  0
 49115  1  0  0  0  0
 52116  1  0  0  0  0
 52117  1  0  0  0  0
 52118  1  0  0  0  0
 53119  1  0  0  0  0
 53120  1  0  0  0  0
121122  1  0  0  0  0
122123  1  0  0  0  0
121127  1  0  0  0  0
122128  1  0  0  0  0
127128  1  0  0  0  0
123129  1  0  0  0  0
128129  1  0  0  0  0
126132  1  0  0  0  0
124133  1  0  0  0  0
130133  1  0  0  0  0
125134  1  0  0  0  0
131134  1  0  0  0  0
126135  1  0  0  0  0
132135  1  0  0  0  0
124136  1  0  0  0  0
130136  1  0  0  0  0
133136  1  0  0  0  0
125137  1  0  0  0  0
131137  1  0  0  0  0
134137  1  0  0  0  0
126138  1  0  0  0  0
132138  1  0  0  0  0
135138  1  0  0  0  0
126139  1  0  0  0  0
132139  1  0  0  0  0
135139  1  0  0  0  0
121140  2  0  0  0  0
122141  2  0  0  0  0
123142  2  0  0  0  0
124143  2  0  0  0  0
125144  2  0  0  0  0
 22145  1  0  0  0  0
 79145  1  0  0  0  0
126145  1  0  0  0  0
126146  1  0  0  0  0
127147  2  0  0  0  0
128148  2  0  0  0  0
129149  2  0  0  0  0
130150  2  0  0  0  0
131151  2  0  0  0  0
132152  1  0  0  0  0
138152  1  0  0  0  0
132153  1  0  0  0  0
139153  1  0  0  0  0
M  END
