 xtb: 6.7.1pre (5071a88)
          08312621193D

153163  0     0  0            999 V2000
  -11.3003   -1.3880    9.6693 C   0  0  0  0  0  0  0  0  0  0  0  0
  -10.5687   -2.0274   10.7073 O   0  0  0  0  0  0  0  0  0  0  0  0
   -9.3715   -1.3125   11.0151 C   0  0  0  0  0  0  0  0  0  0  0  0
   -8.6247   -2.0363   12.1351 C   0  0  0  0  0  0  0  0  0  0  0  0
   -7.4296   -1.3453   12.5044 O   0  0  0  0  0  0  0  0  0  0  0  0
   -6.3120   -1.6116   11.6267 C   0  0  0  0  0  0  0  0  0  0  0  0
   -5.4263   -2.6478   12.3704 C   0  0  0  0  0  0  0  0  0  0  0  0
   -4.3640   -3.4279   11.5730 C   0  0  0  0  0  0  0  0  0  0  0  0
   -4.3344   -3.1801   10.0401 C   0  0  0  0  0  0  0  0  0  0  0  0
   -3.8542   -1.8191    9.5506 C   0  0  0  0  0  0  0  0  0  0  0  0
   -4.8208   -0.7790    8.9560 C   0  0  0  0  0  0  0  0  0  0  0  0
   -5.8734   -1.4065    8.0310 C   0  0  0  0  0  0  0  0  0  0  0  0
   -5.3529    0.2497    9.9939 C   0  0  0  0  0  0  0  0  0  0  0  0
   -6.6421    0.7150    9.5065 O   0  0  0  0  0  0  0  0  0  0  0  0
   -4.4834    1.5630   10.1311 C   0  0  0  0  0  0  0  0  0  0  0  0
   -5.0493    2.6554   10.2434 O   0  0  0  0  0  0  0  0  0  0  0  0
   -2.9161    1.4956   10.2091 C   0  0  0  0  0  0  0  0  0  0  0  0
   -2.3099    0.5468    9.7381 O   0  0  0  0  0  0  0  0  0  0  0  0
   -2.2433    2.5975   10.7962 N   0  0  0  0  0  0  0  0  0  0  0  0
   -2.4018    3.8606   10.0678 C   0  0  0  0  0  0  0  0  0  0  0  0
   -1.1135    4.2777    9.3262 C   0  0  0  0  0  0  0  0  0  0  0  0
   -0.2493    3.0776    8.9214 C   0  0  0  0  0  0  0  0  0  0  0  0
    0.1295    2.1956   10.1248 C   0  0  0  0  0  0  0  0  0  0  0  0
   -0.8482    2.4001   11.2857 C   0  0  0  0  0  0  0  0  0  0  0  0
   -0.6632    1.5120   12.5355 C   0  0  0  0  0  0  0  0  0  0  0  0
   -1.1296    1.8233   13.6292 O   0  0  0  0  0  0  0  0  0  0  0  0
    0.0305    0.3645   12.3102 O   0  0  0  0  0  0  0  0  0  0  0  0
   -0.2511   -0.7986   13.1776 C   0  0  0  0  0  0  0  0  0  0  0  0
   -1.4585   -1.5748   12.4986 C   0  0  0  0  0  0  0  0  0  0  0  0
   -0.9499   -1.9713   11.0903 C   0  0  0  0  0  0  0  0  0  0  0  0
   -2.5466   -0.6216   12.4300 O   0  0  0  0  0  0  0  0  0  0  0  0
   -3.0930   -0.1652   13.6842 C   0  0  0  0  0  0  0  0  0  0  0  0
   -2.0538   -2.8509   13.1504 C   0  0  0  0  0  0  0  0  0  0  0  0
   -2.9955   -3.7801   12.2912 C   0  0  0  0  0  0  0  0  0  0  0  0
    1.0670   -1.5593   13.4571 C   0  0  0  0  0  0  0  0  0  0  0  0
    2.0122   -1.8144   12.3109 C   0  0  0  0  0  0  0  0  0  0  0  0
    2.9692   -1.0028   11.8289 C   0  0  0  0  0  0  0  0  0  0  0  0
    3.2751    0.3283   12.3073 C   0  0  0  0  0  0  0  0  0  0  0  0
    4.1820    1.1901   11.8164 C   0  0  0  0  0  0  0  0  0  0  0  0
    5.0800    0.9837   10.6994 C   0  0  0  0  0  0  0  0  0  0  0  0
    5.9303    1.8887   10.1714 C   0  0  0  0  0  0  0  0  0  0  0  0
    6.0631    3.3246   10.6107 C   0  0  0  0  0  0  0  0  0  0  0  0
    6.8343    1.4911    9.0143 C   0  0  0  0  0  0  0  0  0  0  0  0
    8.3536    1.5682    9.3125 C   0  0  0  0  0  0  0  0  0  0  0  0
    9.1206    1.2371    8.0284 C   0  0  0  0  0  0  0  0  0  0  0  0
    8.7347    0.6477   10.5010 C   0  0  0  0  0  0  0  0  0  0  0  0
   10.2138    0.6388   10.9304 C   0  0  0  0  0  0  0  0  0  0  0  0
   11.0535    0.0686    9.9288 O   0  0  0  0  0  0  0  0  0  0  0  0
   11.1053   -1.3515    9.9740 C   0  0  0  0  0  0  0  0  0  0  0  0
   10.7036    2.0440   11.3195 C   0  0  0  0  0  0  0  0  0  0  0  0
    9.9578    2.8859   11.8259 O   0  0  0  0  0  0  0  0  0  0  0  0
   12.1702    2.3376   11.1319 C   0  0  0  0  0  0  0  0  0  0  0  0
   -5.6178   -0.2572   11.4228 C   0  0  0  0  0  0  0  0  0  0  0  0
  -11.5951   -0.3791    9.9736 H   0  0  0  0  0  0  0  0  0  0  0  0
  -10.7063   -1.3470    8.7510 H   0  0  0  0  0  0  0  0  0  0  0  0
  -12.2037   -1.9722    9.4749 H   0  0  0  0  0  0  0  0  0  0  0  0
   -8.7465   -1.2406   10.1187 H   0  0  0  0  0  0  0  0  0  0  0  0
   -9.6136   -0.2915   11.3339 H   0  0  0  0  0  0  0  0  0  0  0  0
   -8.4114   -3.0782   11.8669 H   0  0  0  0  0  0  0  0  0  0  0  0
   -9.2670   -2.0762   13.0221 H   0  0  0  0  0  0  0  0  0  0  0  0
   -6.6865   -2.0220   10.6908 H   0  0  0  0  0  0  0  0  0  0  0  0
   -6.1086   -3.3976   12.8005 H   0  0  0  0  0  0  0  0  0  0  0  0
   -4.9922   -2.2045   13.2631 H   0  0  0  0  0  0  0  0  0  0  0  0
   -4.8132   -4.4392   11.5626 H   0  0  0  0  0  0  0  0  0  0  0  0
   -5.3140   -3.4257    9.6174 H   0  0  0  0  0  0  0  0  0  0  0  0
   -3.6610   -3.9366    9.6124 H   0  0  0  0  0  0  0  0  0  0  0  0
   -3.3357   -1.3470   10.3695 H   0  0  0  0  0  0  0  0  0  0  0  0
   -3.1060   -2.0142    8.7692 H   0  0  0  0  0  0  0  0  0  0  0  0
   -4.2089   -0.1853    8.2600 H   0  0  0  0  0  0  0  0  0  0  0  0
   -5.4085   -2.1357    7.3582 H   0  0  0  0  0  0  0  0  0  0  0  0
   -6.3377   -0.6423    7.3978 H   0  0  0  0  0  0  0  0  0  0  0  0
   -6.6732   -1.9117    8.5759 H   0  0  0  0  0  0  0  0  0  0  0  0
   -6.7867    1.5962    9.9110 H   0  0  0  0  0  0  0  0  0  0  0  0
   -3.2012    3.7863    9.3252 H   0  0  0  0  0  0  0  0  0  0  0  0
   -2.6813    4.6333   10.7920 H   0  0  0  0  0  0  0  0  0  0  0  0
   -0.5214    4.9352    9.9759 H   0  0  0  0  0  0  0  0  0  0  0  0
   -1.3737    4.8762    8.4456 H   0  0  0  0  0  0  0  0  0  0  0  0
    0.6601    3.4198    8.4148 H   0  0  0  0  0  0  0  0  0  0  0  0
   -0.8024    2.4733    8.1917 H   0  0  0  0  0  0  0  0  0  0  0  0
    1.1418    2.4494   10.4640 H   0  0  0  0  0  0  0  0  0  0  0  0
    0.1782    1.1489    9.8060 H   0  0  0  0  0  0  0  0  0  0  0  0
   -0.5762    3.3788   11.7163 H   0  0  0  0  0  0  0  0  0  0  0  0
   -0.5442   -0.4291   14.1617 H   0  0  0  0  0  0  0  0  0  0  0  0
   -0.1394   -2.6994   11.1552 H   0  0  0  0  0  0  0  0  0  0  0  0
   -0.6046   -1.1151   10.5070 H   0  0  0  0  0  0  0  0  0  0  0  0
   -1.6910   -2.4695   10.4788 H   0  0  0  0  0  0  0  0  0  0  0  0
   -3.5373    0.8211   13.5193 H   0  0  0  0  0  0  0  0  0  0  0  0
   -2.3790   -0.0891   14.5016 H   0  0  0  0  0  0  0  0  0  0  0  0
   -3.8869   -0.8219   14.0293 H   0  0  0  0  0  0  0  0  0  0  0  0
   -2.5834   -2.6102   14.0776 H   0  0  0  0  0  0  0  0  0  0  0  0
   -1.2150   -3.4881   13.4604 H   0  0  0  0  0  0  0  0  0  0  0  0
   -2.3637   -4.2911   11.5521 H   0  0  0  0  0  0  0  0  0  0  0  0
   -3.2584   -4.5836   12.9981 H   0  0  0  0  0  0  0  0  0  0  0  0
    1.6182   -0.9910   14.2185 H   0  0  0  0  0  0  0  0  0  0  0  0
    0.8417   -2.5157   13.9434 H   0  0  0  0  0  0  0  0  0  0  0  0
    1.9231   -2.7938   11.8433 H   0  0  0  0  0  0  0  0  0  0  0  0
    3.5569   -1.3783   10.9949 H   0  0  0  0  0  0  0  0  0  0  0  0
    2.6943    0.6784   13.1588 H   0  0  0  0  0  0  0  0  0  0  0  0
    4.2543    2.1476   12.3272 H   0  0  0  0  0  0  0  0  0  0  0  0
    5.0744   -0.0132   10.2651 H   0  0  0  0  0  0  0  0  0  0  0  0
    6.1118    3.9840    9.7372 H   0  0  0  0  0  0  0  0  0  0  0  0
    5.2202    3.6742   11.2113 H   0  0  0  0  0  0  0  0  0  0  0  0
    6.9771    3.4610   11.1967 H   0  0  0  0  0  0  0  0  0  0  0  0
    6.5973    2.1476    8.1660 H   0  0  0  0  0  0  0  0  0  0  0  0
    6.5944    0.4747    8.6737 H   0  0  0  0  0  0  0  0  0  0  0  0
    8.5951    2.6055    9.5732 H   0  0  0  0  0  0  0  0  0  0  0  0
    8.7312    1.8126    7.1812 H   0  0  0  0  0  0  0  0  0  0  0  0
    9.0395    0.1741    7.7787 H   0  0  0  0  0  0  0  0  0  0  0  0
   10.1792    1.4956    8.1196 H   0  0  0  0  0  0  0  0  0  0  0  0
    8.1450    0.9429   11.3777 H   0  0  0  0  0  0  0  0  0  0  0  0
    8.4256   -0.3750   10.2536 H   0  0  0  0  0  0  0  0  0  0  0  0
   10.3112    0.0469   11.8508 H   0  0  0  0  0  0  0  0  0  0  0  0
   10.1185   -1.7880    9.8000 H   0  0  0  0  0  0  0  0  0  0  0  0
   11.7769   -1.6928    9.1815 H   0  0  0  0  0  0  0  0  0  0  0  0
   11.5048   -1.6900   10.9347 H   0  0  0  0  0  0  0  0  0  0  0  0
   12.4033    3.3224   11.5471 H   0  0  0  0  0  0  0  0  0  0  0  0
   12.4139    2.3415   10.0668 H   0  0  0  0  0  0  0  0  0  0  0  0
   12.7658    1.5873   11.6577 H   0  0  0  0  0  0  0  0  0  0  0  0
   -6.1880    0.5190   11.9545 H   0  0  0  0  0  0  0  0  0  0  0  0
   -4.6683   -0.2912   11.9219 H   0  0  0  0  0  0  0  0  0  0  0  0
   -2.1419   -3.0088    2.1197 Ti  0  0  0  0  0  0  0  0  0  0  0  0
    0.2890   -1.6948    1.4324 Ti  0  0  0  0  0  0  0  0  0  0  0  0
    1.9031   -3.0677   -0.7293 Ti  0  0  0  0  0  0  0  0  0  0  0  0
   -2.5215   -0.2519    1.3037 Ti  0  0  0  0  0  0  0  0  0  0  0  0
    2.1420    0.4995    2.2044 Ti  0  0  0  0  0  0  0  0  0  0  0  0
   -0.6814    0.1896    3.6812 Ti  0  0  0  0  0  0  0  0  0  0  0  0
   -2.0368   -3.0777   -1.2005 Ti  0  0  0  0  0  0  0  0  0  0  0  0
   -0.6053   -0.7709   -2.0351 Ti  0  0  0  0  0  0  0  0  0  0  0  0
    1.9455   -1.5873   -3.4124 Ti  0  0  0  0  0  0  0  0  0  0  0  0
   -1.8782    1.7466   -1.2400 Ti  0  0  0  0  0  0  0  0  0  0  0  0
    2.4125    0.4542   -0.7742 Ti  0  0  0  0  0  0  0  0  0  0  0  0
    0.8177    1.8385   -2.9400 Ti  0  0  0  0  0  0  0  0  0  0  0  0
   -3.6784    1.2814    0.6007 C   0  0  0  0  0  0  0  0  0  0  0  0
    4.1282    0.4828    0.3873 C   0  0  0  0  0  0  0  0  0  0  0  0
    0.4555    2.2672    0.3497 C   0  0  0  0  0  0  0  0  0  0  0  0
   -3.6667    2.1188   -0.3139 C   0  0  0  0  0  0  0  0  0  0  0  0
    4.1160    0.6322    1.6214 C   0  0  0  0  0  0  0  0  0  0  0  0
   -0.6352    2.7410   -0.1189 C   0  0  0  0  0  0  0  0  0  0  0  0
    1.6301    1.7810    0.7342 C   0  0  0  0  0  0  0  0  0  0  0  0
   -3.0935   -1.9569    1.0379 O   0  0  0  0  0  0  0  0  0  0  0  0
   -0.4872   -2.6058    2.7012 O   0  0  0  0  0  0  0  0  0  0  0  0
    0.3141   -2.8889    0.1450 O   0  0  0  0  0  0  0  0  0  0  0  0
   -0.8008   -0.4359    0.9712 O   0  0  0  0  0  0  0  0  0  0  0  0
    1.9029   -1.1583    1.4694 O   0  0  0  0  0  0  0  0  0  0  0  0
   -2.3227   -0.1139    3.0248 O   0  0  0  0  0  0  0  0  0  0  0  0
    1.0138    0.4416    3.5688 O   0  0  0  0  0  0  0  0  0  0  0  0
   -1.7720   -4.5879   -1.6528 O   0  0  0  0  0  0  0  0  0  0  0  0
    0.1906   -1.1892   -3.5340 O   0  0  0  0  0  0  0  0  0  0  0  0
    2.8314   -2.1702   -1.9180 O   0  0  0  0  0  0  0  0  0  0  0  0
   -2.0546   -0.2244   -1.3375 O   0  0  0  0  0  0  0  0  0  0  0  0
    0.7685   -0.3906   -1.0637 O   0  0  0  0  0  0  0  0  0  0  0  0
   -0.9000    1.6493   -2.8186 O   0  0  0  0  0  0  0  0  0  0  0  0
    2.4153    1.3575   -2.2641 O   0  0  0  0  0  0  0  0  0  0  0  0
  1  2  1  0  0  0  0
  2  3  1  0  0  0  0
  3  4  1  0  0  0  0
  4  5  1  0  0  0  0
  5  6  1  0  0  0  0
  6  7  1  0  0  0  0
  7  8  1  0  0  0  0
  8  9  1  0  0  0  0
  9 10  1  0  0  0  0
 10 11  1  0  0  0  0
 11 12  1  0  0  0  0
 11 13  1  0  0  0  0
 13 14  1  0  0  0  0
 13 15  1  0  0  0  0
 15 16  2  0  0  0  0
 15 17  1  0  0  0  0
 17 18  2  0  0  0  0
 17 19  1  0  0  0  0
 19 20  1  0  0  0  0
 20 21  1  0  0  0  0
 21 22  1  0  0  0  0
 22 23  1  0  0  0  0
 19 24  1  0  0  0  0
 23 24  1  0  0  0  0
 24 25  1  0  0  0  0
 25 26  2  0  0  0  0
 25 27  1  0  0  0  0
 27 28  1  0  0  0  0
 28 29  1  0  0  0  0
 29 30  1  0  0  0  0
 29 31  1  0  0  0  0
 31 32  1  0  0  0  0
 29 33  1  0  0  0  0
  8 34  1  0  0  0  0
 33 34  1  0  0  0  0
 28 35  1  0  0  0  0
 35 36  1  0  0  0  0
 36 37  2  0  0  0  0
 37 38  1  0  0  0  0
 38 39  2  0  0  0  0
 39 40  1  0  0  0  0
 40 41  2  0  0  0  0
 41 42  1  0  0  0  0
 41 43  1  0  0  0  0
 43 44  1  0  0  0  0
 44 45  1  0  0  0  0
 44 46  1  0  0  0  0
 46 47  1  0  0  0  0
 47 48  1  0  0  0  0
 48 49  1  0  0  0  0
 47 50  1  0  0  0  0
 50 51  2  0  0  0  0
 50 52  1  0  0  0  0
  6 53  1  0  0  0  0
 13 53  1  0  0  0  0
  1 54  1  0  0  0  0
  1 55  1  0  0  0  0
  1 56  1  0  0  0  0
  3 57  1  0  0  0  0
  3 58  1  0  0  0  0
  4 59  1  0  0  0  0
  4 60  1  0  0  0  0
  6 61  1  0  0  0  0
  7 62  1  0  0  0  0
  7 63  1  0  0  0  0
  8 64  1  0  0  0  0
  9 65  1  0  0  0  0
  9 66  1  0  0  0  0
 10 67  1  0  0  0  0
 10 68  1  0  0  0  0
 11 69  1  0  0  0  0
 12 70  1  0  0  0  0
 12 71  1  0  0  0  0
 12 72  1  0  0  0  0
 14 73  1  0  0  0  0
 20 74  1  0  0  0  0
 20 75  1  0  0  0  0
 21 76  1  0  0  0  0
 21 77  1  0  0  0  0
 22 78  1  0  0  0  0
 22 79  1  0  0  0  0
 23 80  1  0  0  0  0
 23 81  1  0  0  0  0
 24 82  1  0  0  0  0
 28 83  1  0  0  0  0
 30 84  1  0  0  0  0
 30 85  1  0  0  0  0
 30 86  1  0  0  0  0
 32 87  1  0  0  0  0
 32 88  1  0  0  0  0
 32 89  1  0  0  0  0
 33 90  1  0  0  0  0
 33 91  1  0  0  0  0
 34 92  1  0  0  0  0
 34 93  1  0  0  0  0
 35 94  1  0  0  0  0
 35 95  1  0  0  0  0
 36 96  1  0  0  0  0
 37 97  1  0  0  0  0
 38 98  1  0  0  0  0
 39 99  1  0  0  0  0
 40100  1  0  0  0  0
 42101  1  0  0  0  0
 42102  1  0  0  0  0
 42103  1  0  0  0  0
 43104  1  0  0  0  0
 43105  1  0  0  0  0
 44106  1  0  0  0  0
 45107  1  0  0  0  0
 45108  1  0  0  0  0
 45109  1  0  0  0  0
 46110  1  0  0  0  0
 46111  1  0  0  0  0
 47112  1  0  0  0  0
 49113  1  0  0  0  0
 49114  1  0  0  0  0
 49115  1  0  0  0  0
 52116  1  0  0  0  0
 52117  1  0  0  0  0
 52118  1  0  0  0  0
 53119  1  0  0  0  0
 53120  1  0  0  0  0
121127  1  0  0  0  0
127128  1  0  0  0  0
123129  1  0  0  0  0
124133  1  0  0  0  0
131134  1  0  0  0  0
130136  1  0  0  0  0
133136  3  0  0  0  0
125137  1  0  0  0  0
134137  3  0  0  0  0
130138  1  0  0  0  0
135138  2  0  0  0  0
125139  1  0  0  0  0
131139  1  0  0  0  0
135139  2  0  0  0  0
121140  1  0  0  0  0
124140  1  0  0  0  0
121141  1  0  0  0  0
122141  1  0  0  0  0
122142  1  0  0  0  0
123142  1  0  0  0  0
122143  1  0  0  0  0
124143  1  0  0  0  0
122144  1  0  0  0  0
125144  1  0  0  0  0
124145  1  0  0  0  0
126145  1  0  0  0  0
125146  1  0  0  0  0
126146  1  0  0  0  0
127147  2  0  0  0  0
128148  1  0  0  0  0
129148  1  0  0  0  0
123149  1  0  0  0  0
129149  1  0  0  0  0
128150  1  0  0  0  0
130150  1  0  0  0  0
128151  1  0  0  0  0
131151  1  0  0  0  0
130152  1  0  0  0  0
132152  1  0  0  0  0
131153  1  0  0  0  0
132153  1  0  0  0  0
M  END
