 xtb: 6.7.1pre (5071a88)
          08312622023D

153163  0     0  0            999 V2000
   -7.9956    3.5125    7.5305 C   0  0  0  0  0  0  0  0  0  0  0  0
   -7.8951    2.3893    8.3963 O   0  0  0  0  0  0  0  0  0  0  0  0
   -6.7783    2.5081    9.2770 C   0  0  0  0  0  0  0  0  0  0  0  0
   -6.7148    1.2814   10.1802 C   0  0  0  0  0  0  0  0  0  0  0  0
   -5.5962    1.4035   11.0602 O   0  0  0  0  0  0  0  0  0  0  0  0
   -5.4706    0.2992   11.9912 C   0  0  0  0  0  0  0  0  0  0  0  0
   -3.9664    0.1530   12.2294 C   0  0  0  0  0  0  0  0  0  0  0  0
   -3.3322   -1.1872   12.6926 C   0  0  0  0  0  0  0  0  0  0  0  0
   -4.1111   -2.2083   13.5463 C   0  0  0  0  0  0  0  0  0  0  0  0
   -5.5783   -2.4781   13.2656 C   0  0  0  0  0  0  0  0  0  0  0  0
   -6.5967   -1.7054   14.1326 C   0  0  0  0  0  0  0  0  0  0  0  0
   -7.9902   -1.8674   13.4857 C   0  0  0  0  0  0  0  0  0  0  0  0
   -6.2775   -0.2257   14.4878 C   0  0  0  0  0  0  0  0  0  0  0  0
   -7.3748    0.2516   15.3206 O   0  0  0  0  0  0  0  0  0  0  0  0
   -5.0507    0.0864   15.3963 C   0  0  0  0  0  0  0  0  0  0  0  0
   -4.3074    1.0351   15.1545 O   0  0  0  0  0  0  0  0  0  0  0  0
   -4.7699   -0.7794   16.6570 C   0  0  0  0  0  0  0  0  0  0  0  0
   -5.3256   -1.8681   16.7581 O   0  0  0  0  0  0  0  0  0  0  0  0
   -3.8371   -0.3437   17.6264 N   0  0  0  0  0  0  0  0  0  0  0  0
   -3.3312   -1.3606   18.5525 C   0  0  0  0  0  0  0  0  0  0  0  0
   -3.0185   -0.8143   19.9383 C   0  0  0  0  0  0  0  0  0  0  0  0
   -2.1180    0.4075   19.8567 C   0  0  0  0  0  0  0  0  0  0  0  0
   -2.7780    1.4706   18.9893 C   0  0  0  0  0  0  0  0  0  0  0  0
   -3.1200    0.9548   17.5792 C   0  0  0  0  0  0  0  0  0  0  0  0
   -1.8436    1.0211   16.7094 C   0  0  0  0  0  0  0  0  0  0  0  0
   -1.3421    2.0857   16.3637 O   0  0  0  0  0  0  0  0  0  0  0  0
   -1.2936   -0.2048   16.4641 O   0  0  0  0  0  0  0  0  0  0  0  0
   -0.0562   -0.2318   15.6903 C   0  0  0  0  0  0  0  0  0  0  0  0
    0.0413   -1.5988   14.9117 C   0  0  0  0  0  0  0  0  0  0  0  0
    0.2230   -2.7632   15.9222 C   0  0  0  0  0  0  0  0  0  0  0  0
    1.2432   -1.6698   14.1146 O   0  0  0  0  0  0  0  0  0  0  0  0
    1.3222   -0.8445   12.9650 C   0  0  0  0  0  0  0  0  0  0  0  0
   -1.2264   -1.9681   14.0775 C   0  0  0  0  0  0  0  0  0  0  0  0
   -1.9665   -0.8211   13.3702 C   0  0  0  0  0  0  0  0  0  0  0  0
    1.1606   -0.0281   16.6345 C   0  0  0  0  0  0  0  0  0  0  0  0
    1.5465    1.4146   16.8377 C   0  0  0  0  0  0  0  0  0  0  0  0
    2.5405    2.0922   16.2406 C   0  0  0  0  0  0  0  0  0  0  0  0
    3.4541    1.5734   15.2467 C   0  0  0  0  0  0  0  0  0  0  0  0
    4.4043    2.3260   14.6692 C   0  0  0  0  0  0  0  0  0  0  0  0
    5.3121    1.8010   13.6718 C   0  0  0  0  0  0  0  0  0  0  0  0
    6.2938    2.4668   13.0305 C   0  0  0  0  0  0  0  0  0  0  0  0
    6.6386    3.9214   13.2127 C   0  0  0  0  0  0  0  0  0  0  0  0
    7.1362    1.7416   11.9937 C   0  0  0  0  0  0  0  0  0  0  0  0
    8.1456    0.7182   12.5693 C   0  0  0  0  0  0  0  0  0  0  0  0
    9.1697    1.3921   13.4882 C   0  0  0  0  0  0  0  0  0  0  0  0
    8.8321   -0.0207   11.3949 C   0  0  0  0  0  0  0  0  0  0  0  0
    9.7442   -1.1825   11.8152 C   0  0  0  0  0  0  0  0  0  0  0  0
    8.9708   -2.1379   12.5368 O   0  0  0  0  0  0  0  0  0  0  0  0
    9.7724   -2.9772   13.3608 C   0  0  0  0  0  0  0  0  0  0  0  0
   10.3950   -1.7915   10.5654 C   0  0  0  0  0  0  0  0  0  0  0  0
   11.5608   -1.5286   10.2604 O   0  0  0  0  0  0  0  0  0  0  0  0
    9.5505   -2.6909    9.6985 C   0  0  0  0  0  0  0  0  0  0  0  0
   -6.2902    0.6891   13.2355 C   0  0  0  0  0  0  0  0  0  0  0  0
   -8.8635    3.3701    6.8812 H   0  0  0  0  0  0  0  0  0  0  0  0
   -7.1013    3.5956    6.9054 H   0  0  0  0  0  0  0  0  0  0  0  0
   -8.1386    4.4304    8.1088 H   0  0  0  0  0  0  0  0  0  0  0  0
   -6.8757    3.4138    9.8876 H   0  0  0  0  0  0  0  0  0  0  0  0
   -5.8502    2.5924    8.6989 H   0  0  0  0  0  0  0  0  0  0  0  0
   -7.6479    1.1918   10.7466 H   0  0  0  0  0  0  0  0  0  0  0  0
   -6.6090    0.3783    9.5674 H   0  0  0  0  0  0  0  0  0  0  0  0
   -5.8648   -0.5832   11.4896 H   0  0  0  0  0  0  0  0  0  0  0  0
   -3.4622    0.3926   11.2791 H   0  0  0  0  0  0  0  0  0  0  0  0
   -3.6456    0.9821   12.8704 H   0  0  0  0  0  0  0  0  0  0  0  0
   -3.0856   -1.7280   11.7664 H   0  0  0  0  0  0  0  0  0  0  0  0
   -3.9710   -2.0190   14.6069 H   0  0  0  0  0  0  0  0  0  0  0  0
   -3.6039   -3.1719   13.3845 H   0  0  0  0  0  0  0  0  0  0  0  0
   -5.7525   -3.5424   13.4874 H   0  0  0  0  0  0  0  0  0  0  0  0
   -5.7874   -2.4129   12.1950 H   0  0  0  0  0  0  0  0  0  0  0  0
   -6.6960   -2.2616   15.0693 H   0  0  0  0  0  0  0  0  0  0  0  0
   -8.7776   -1.4351   14.1108 H   0  0  0  0  0  0  0  0  0  0  0  0
   -8.0388   -1.3969   12.4989 H   0  0  0  0  0  0  0  0  0  0  0  0
   -8.2287   -2.9292   13.3552 H   0  0  0  0  0  0  0  0  0  0  0  0
   -7.3373    1.2257   15.3456 H   0  0  0  0  0  0  0  0  0  0  0  0
   -2.4284   -1.7909   18.1057 H   0  0  0  0  0  0  0  0  0  0  0  0
   -4.0474   -2.1826   18.6552 H   0  0  0  0  0  0  0  0  0  0  0  0
   -2.5403   -1.5918   20.5444 H   0  0  0  0  0  0  0  0  0  0  0  0
   -3.9544   -0.5431   20.4427 H   0  0  0  0  0  0  0  0  0  0  0  0
   -1.9425    0.8062   20.8621 H   0  0  0  0  0  0  0  0  0  0  0  0
   -1.1410    0.1310   19.4435 H   0  0  0  0  0  0  0  0  0  0  0  0
   -2.1292    2.3530   18.9367 H   0  0  0  0  0  0  0  0  0  0  0  0
   -3.7060    1.7934   19.4800 H   0  0  0  0  0  0  0  0  0  0  0  0
   -3.8113    1.6949   17.1666 H   0  0  0  0  0  0  0  0  0  0  0  0
   -0.0775    0.5778   14.9518 H   0  0  0  0  0  0  0  0  0  0  0  0
    1.1805   -2.7027   16.4503 H   0  0  0  0  0  0  0  0  0  0  0  0
   -0.5814   -2.7933   16.6639 H   0  0  0  0  0  0  0  0  0  0  0  0
    0.2399   -3.7266   15.3973 H   0  0  0  0  0  0  0  0  0  0  0  0
    2.3547   -0.8719   12.6044 H   0  0  0  0  0  0  0  0  0  0  0  0
    1.0710    0.1953   13.1823 H   0  0  0  0  0  0  0  0  0  0  0  0
    0.6878   -1.2392   12.1679 H   0  0  0  0  0  0  0  0  0  0  0  0
   -1.9236   -2.4418   14.7753 H   0  0  0  0  0  0  0  0  0  0  0  0
   -0.9652   -2.7276   13.3295 H   0  0  0  0  0  0  0  0  0  0  0  0
   -1.3225   -0.3631   12.6130 H   0  0  0  0  0  0  0  0  0  0  0  0
   -2.1692   -0.0403   14.1057 H   0  0  0  0  0  0  0  0  0  0  0  0
    2.0334   -0.5747   16.2659 H   0  0  0  0  0  0  0  0  0  0  0  0
    0.9350   -0.4485   17.6230 H   0  0  0  0  0  0  0  0  0  0  0  0
    0.9367    1.9628   17.5549 H   0  0  0  0  0  0  0  0  0  0  0  0
    2.6664    3.1402   16.5124 H   0  0  0  0  0  0  0  0  0  0  0  0
    3.3544    0.5302   14.9603 H   0  0  0  0  0  0  0  0  0  0  0  0
    4.5003    3.3688   14.9538 H   0  0  0  0  0  0  0  0  0  0  0  0
    5.1687    0.7474   13.4270 H   0  0  0  0  0  0  0  0  0  0  0  0
    6.0613    4.4172   13.9952 H   0  0  0  0  0  0  0  0  0  0  0  0
    7.6954    4.0317   13.4762 H   0  0  0  0  0  0  0  0  0  0  0  0
    6.4606    4.4661   12.2793 H   0  0  0  0  0  0  0  0  0  0  0  0
    6.4540    1.2260   11.3032 H   0  0  0  0  0  0  0  0  0  0  0  0
    7.6707    2.4744   11.3746 H   0  0  0  0  0  0  0  0  0  0  0  0
    7.5905   -0.0179   13.1646 H   0  0  0  0  0  0  0  0  0  0  0  0
    8.6804    1.9044   14.3224 H   0  0  0  0  0  0  0  0  0  0  0  0
    9.7685    2.1274   12.9404 H   0  0  0  0  0  0  0  0  0  0  0  0
    9.8510    0.6609   13.9327 H   0  0  0  0  0  0  0  0  0  0  0  0
    8.0415   -0.4150   10.7431 H   0  0  0  0  0  0  0  0  0  0  0  0
    9.4050    0.6953   10.7911 H   0  0  0  0  0  0  0  0  0  0  0  0
   10.5551   -0.8045   12.4489 H   0  0  0  0  0  0  0  0  0  0  0  0
   10.5022   -3.5299   12.7619 H   0  0  0  0  0  0  0  0  0  0  0  0
   10.2825   -2.3845   14.1263 H   0  0  0  0  0  0  0  0  0  0  0  0
    9.1153   -3.6952   13.8588 H   0  0  0  0  0  0  0  0  0  0  0  0
    8.7139   -2.1296    9.2776 H   0  0  0  0  0  0  0  0  0  0  0  0
   10.1590   -3.0788    8.8764 H   0  0  0  0  0  0  0  0  0  0  0  0
    9.1833   -3.5378   10.2826 H   0  0  0  0  0  0  0  0  0  0  0  0
   -7.3358    0.8227   12.9245 H   0  0  0  0  0  0  0  0  0  0  0  0
   -6.0104    1.7131   13.5253 H   0  0  0  0  0  0  0  0  0  0  0  0
   -2.1419   -3.0088    2.1197 Ti  0  0  0  0  0  0  0  0  0  0  0  0
    0.2890   -1.6948    1.4324 Ti  0  0  0  0  0  0  0  0  0  0  0  0
    1.9031   -3.0677   -0.7293 Ti  0  0  0  0  0  0  0  0  0  0  0  0
   -2.5215   -0.2519    1.3037 Ti  0  0  0  0  0  0  0  0  0  0  0  0
    2.1420    0.4995    2.2044 Ti  0  0  0  0  0  0  0  0  0  0  0  0
   -0.6814    0.1896    3.6812 Ti  0  0  0  0  0  0  0  0  0  0  0  0
   -2.0368   -3.0777   -1.2005 Ti  0  0  0  0  0  0  0  0  0  0  0  0
   -0.6053   -0.7709   -2.0351 Ti  0  0  0  0  0  0  0  0  0  0  0  0
    1.9455   -1.5873   -3.4124 Ti  0  0  0  0  0  0  0  0  0  0  0  0
   -1.8782    1.7466   -1.2400 Ti  0  0  0  0  0  0  0  0  0  0  0  0
    2.4125    0.4542   -0.7742 Ti  0  0  0  0  0  0  0  0  0  0  0  0
    0.8177    1.8385   -2.9400 Ti  0  0  0  0  0  0  0  0  0  0  0  0
   -3.6784    1.2814    0.6007 C   0  0  0  0  0  0  0  0  0  0  0  0
    4.1282    0.4828    0.3873 C   0  0  0  0  0  0  0  0  0  0  0  0
    0.4555    2.2672    0.3497 C   0  0  0  0  0  0  0  0  0  0  0  0
   -3.6667    2.1188   -0.3139 C   0  0  0  0  0  0  0  0  0  0  0  0
    4.1160    0.6322    1.6214 C   0  0  0  0  0  0  0  0  0  0  0  0
   -0.6352    2.7410   -0.1189 C   0  0  0  0  0  0  0  0  0  0  0  0
    1.6301    1.7810    0.7342 C   0  0  0  0  0  0  0  0  0  0  0  0
   -3.0935   -1.9569    1.0379 O   0  0  0  0  0  0  0  0  0  0  0  0
   -0.4872   -2.6058    2.7012 O   0  0  0  0  0  0  0  0  0  0  0  0
    0.3141   -2.8889    0.1450 O   0  0  0  0  0  0  0  0  0  0  0  0
   -0.8008   -0.4359    0.9712 O   0  0  0  0  0  0  0  0  0  0  0  0
    1.9029   -1.1583    1.4694 O   0  0  0  0  0  0  0  0  0  0  0  0
   -2.3227   -0.1139    3.0248 O   0  0  0  0  0  0  0  0  0  0  0  0
    1.0138    0.4416    3.5688 O   0  0  0  0  0  0  0  0  0  0  0  0
   -1.7720   -4.5879   -1.6528 O   0  0  0  0  0  0  0  0  0  0  0  0
    0.1906   -1.1892   -3.5340 O   0  0  0  0  0  0  0  0  0  0  0  0
    2.8314   -2.1702   -1.9180 O   0  0  0  0  0  0  0  0  0  0  0  0
   -2.0546   -0.2244   -1.3375 O   0  0  0  0  0  0  0  0  0  0  0  0
    0.7685   -0.3906   -1.0637 O   0  0  0  0  0  0  0  0  0  0  0  0
   -0.9000    1.6493   -2.8186 O   0  0  0  0  0  0  0  0  0  0  0  0
    2.4153    1.3575   -2.2641 O   0  0  0  0  0  0  0  0  0  0  0  0
  1  2  1  0  0  0  0
  2  3  1  0  0  0  0
  3  4  1  0  0  0  0
  4  5  1  0  0  0  0
  5  6  1  0  0  0  0
  6  7  1  0  0  0  0
  7  8  1  0  0  0  0
  8  9  1  0  0  0  0
  9 10  1  0  0  0  0
 10 11  1  0  0  0  0
 11 12  1  0  0  0  0
 11 13  1  0  0  0  0
 13 14  1  0  0  0  0
 13 15  1  0  0  0  0
 15 16  2  0  0  0  0
 15 17  1  0  0  0  0
 17 18  2  0  0  0  0
 17 19  4  0  0  0  0
 19 20  1  0  0  0  0
 20 21  1  0  0  0  0
 21 22  1  0  0  0  0
 22 23  1  0  0  0  0
 19 24  1  0  0  0  0
 23 24  1  0  0  0  0
 24 25  1  0  0  0  0
 25 26  2  0  0  0  0
 25 27  1  0  0  0  0
 27 28  1  0  0  0  0
 28 29  1  0  0  0  0
 29 30  1  0  0  0  0
 29 31  1  0  0  0  0
 31 32  1  0  0  0  0
 29 33  1  0  0  0  0
  8 34  1  0  0  0  0
 33 34  1  0  0  0  0
 28 35  1  0  0  0  0
 35 36  1  0  0  0  0
 36 37  2  0  0  0  0
 37 38  1  0  0  0  0
 38 39  2  0  0  0  0
 39 40  1  0  0  0  0
 40 41  2  0  0  0  0
 41 42  1  0  0  0  0
 41 43  1  0  0  0  0
 43 44  1  0  0  0  0
 44 45  1  0  0  0  0
 44 46  1  0  0  0  0
 46 47  1  0  0  0  0
 47 48  1  0  0  0  0
 48 49  1  0  0  0  0
 47 50  1  0  0  0  0
 50 51  2  0  0  0  0
 50 52  1  0  0  0  0
  6 53  1  0  0  0  0
 13 53  1  0  0  0  0
  1 54  1  0  0  0  0
  1 55  1  0  0  0  0
  1 56  1  0  0  0  0
  3 57  1  0  0  0  0
  3 58  1  0  0  0  0
  4 59  1  0  0  0  0
  4 60  1  0  0  0  0
  6 61  1  0  0  0  0
  7 62  1  0  0  0  0
  7 63  1  0  0  0  0
  8 64  1  0  0  0  0
  9 65  1  0  0  0  0
  9 66  1  0  0  0  0
 10 67  1  0  0  0  0
 10 68  1  0  0  0  0
 11 69  1  0  0  0  0
 12 70  1  0  0  0  0
 12 71  1  0  0  0  0
 12 72  1  0  0  0  0
 14 73  1  0  0  0  0
 20 74  1  0  0  0  0
 20 75  1  0  0  0  0
 21 76  1  0  0  0  0
 21 77  1  0  0  0  0
 22 78  1  0  0  0  0
 22 79  1  0  0  0  0
 23 80  1  0  0  0  0
 23 81  1  0  0  0  0
 24 82  1  0  0  0  0
 28 83  1  0  0  0  0
 30 84  1  0  0  0  0
 30 85  1  0  0  0  0
 30 86  1  0  0  0  0
 32 87  1  0  0  0  0
 32 88  1  0  0  0  0
 32 89  1  0  0  0  0
 33 90  1  0  0  0  0
 33 91  1  0  0  0  0
 34 92  1  0  0  0  0
 34 93  1  0  0  0  0
 35 94  1  0  0  0  0
 35 95  1  0  0  0  0
 36 96  1  0  0  0  0
 37 97  1  0  0  0  0
 38 98  1  0  0  0  0
 39 99  1  0  0  0  0
 40100  1  0  0  0  0
 42101  1  0  0  0  0
 42102  1  0  0  0  0
 42103  1  0  0  0  0
 43104  1  0  0  0  0
 43105  1  0  0  0  0
 44106  1  0  0  0  0
 45107  1  0  0  0  0
 45108  1  0  0  0  0
 45109  1  0  0  0  0
 46110  1  0  0  0  0
 46111  1  0  0  0  0
 47112  1  0  0  0  0
 49113  1  0  0  0  0
 49114  1  0  0  0  0
 49115  1  0  0  0  0
 52116  1  0  0  0  0
 52117  1  0  0  0  0
 52118  1  0  0  0  0
 53119  1  0  0  0  0
 53120  1  0  0  0  0
121127  1  0  0  0  0
127128  1  0  0  0  0
123129  1  0  0  0  0
124133  1  0  0  0  0
131134  1  0  0  0  0
130136  1  0  0  0  0
133136  3  0  0  0  0
125137  1  0  0  0  0
134137  3  0  0  0  0
130138  1  0  0  0  0
135138  2  0  0  0  0
125139  1  0  0  0  0
131139  1  0  0  0  0
135139  2  0  0  0  0
121140  1  0  0  0  0
124140  1  0  0  0  0
121141  1  0  0  0  0
122141  1  0  0  0  0
122142  1  0  0  0  0
123142  1  0  0  0  0
122143  1  0  0  0  0
124143  1  0  0  0  0
122144  1  0  0  0  0
125144  1  0  0  0  0
124145  1  0  0  0  0
126145  1  0  0  0  0
125146  1  0  0  0  0
126146  1  0  0  0  0
127147  2  0  0  0  0
128148  1  0  0  0  0
129148  1  0  0  0  0
123149  1  0  0  0  0
129149  1  0  0  0  0
128150  1  0  0  0  0
130150  1  0  0  0  0
128151  1  0  0  0  0
131151  1  0  0  0  0
130152  1  0  0  0  0
132152  1  0  0  0  0
131153  1  0  0  0  0
132153  1  0  0  0  0
M  END
