 xtb: 6.7.1pre (5071a88)
          08312621193D

 81 91  0     0  0            999 V2000
   -8.8898    2.9144   11.9623 C   0  0  0  0  0  0  0  0  0  0  0  0
   -7.6865    2.2198   11.5957 N   0  0  0  0  0  0  0  0  0  0  0  0
   -7.0003    1.4108   12.4764 C   0  0  0  0  0  0  0  0  0  0  0  0
   -7.2872    1.2813   13.6606 O   0  0  0  0  0  0  0  0  0  0  0  0
   -5.8509    0.6695   11.8626 C   0  0  0  0  0  0  0  0  0  0  0  0
   -5.0573   -0.1456   12.6533 C   0  0  0  0  0  0  0  0  0  0  0  0
   -4.0003   -0.8042   12.0389 C   0  0  0  0  0  0  0  0  0  0  0  0
   -3.2428   -1.6371   12.8309 O   0  0  0  0  0  0  0  0  0  0  0  0
   -1.8771   -1.6031   12.6700 C   0  0  0  0  0  0  0  0  0  0  0  0
   -1.2138   -2.8305   12.6446 C   0  0  0  0  0  0  0  0  0  0  0  0
    0.1777   -2.8740   12.5137 C   0  0  0  0  0  0  0  0  0  0  0  0
    0.9129   -1.6883   12.3993 C   0  0  0  0  0  0  0  0  0  0  0  0
    2.3150   -1.7946   12.2613 N   0  0  0  0  0  0  0  0  0  0  0  0
    3.0988   -0.8927   11.5528 C   0  0  0  0  0  0  0  0  0  0  0  0
    2.6619   -0.0474   10.7850 O   0  0  0  0  0  0  0  0  0  0  0  0
    4.4391   -1.1308   11.8141 N   0  0  0  0  0  0  0  0  0  0  0  0
    5.5509   -0.5202   11.2016 C   0  0  0  0  0  0  0  0  0  0  0  0
    6.8030   -0.7426   11.7807 C   0  0  0  0  0  0  0  0  0  0  0  0
    7.9516   -0.1762   11.2239 C   0  0  0  0  0  0  0  0  0  0  0  0
    7.8627    0.6145   10.0759 C   0  0  0  0  0  0  0  0  0  0  0  0
    9.3289    1.2769    9.4513 Cl  0  0  0  0  0  0  0  0  0  0  0  0
    6.6227    0.8432    9.4709 C   0  0  0  0  0  0  0  0  0  0  0  0
    6.4993    1.6832    8.2282 C   0  0  0  0  0  0  0  0  0  0  0  0
    6.9218    2.9651    8.4078 F   0  0  0  0  0  0  0  0  0  0  0  0
    5.2198    1.7862    7.7665 F   0  0  0  0  0  0  0  0  0  0  0  0
    7.2160    1.1865    7.1812 F   0  0  0  0  0  0  0  0  0  0  0  0
    5.4712    0.2647   10.0475 C   0  0  0  0  0  0  0  0  0  0  0  0
    0.2351   -0.4638   12.4859 C   0  0  0  0  0  0  0  0  0  0  0  0
    0.9048    0.6968   12.5307 F   0  0  0  0  0  0  0  0  0  0  0  0
   -1.1505   -0.4147   12.6218 C   0  0  0  0  0  0  0  0  0  0  0  0
   -3.7917   -0.6649   10.6679 C   0  0  0  0  0  0  0  0  0  0  0  0
   -4.6389    0.1723    9.9623 C   0  0  0  0  0  0  0  0  0  0  0  0
   -5.6643    0.8485   10.5222 N   0  0  0  0  0  0  0  0  0  0  0  0
   -9.0123    3.7725   11.2976 H   0  0  0  0  0  0  0  0  0  0  0  0
   -8.8383    3.2501   13.0014 H   0  0  0  0  0  0  0  0  0  0  0  0
   -9.7349    2.2317   11.8423 H   0  0  0  0  0  0  0  0  0  0  0  0
   -7.4028    2.1572   10.6209 H   0  0  0  0  0  0  0  0  0  0  0  0
   -5.2532   -0.2596   13.7138 H   0  0  0  0  0  0  0  0  0  0  0  0
   -1.7815   -3.7549   12.7221 H   0  0  0  0  0  0  0  0  0  0  0  0
    0.6689   -3.8429   12.4829 H   0  0  0  0  0  0  0  0  0  0  0  0
    2.7055   -2.7243   12.3127 H   0  0  0  0  0  0  0  0  0  0  0  0
    4.6165   -1.6446   12.6652 H   0  0  0  0  0  0  0  0  0  0  0  0
    6.9059   -1.3520   12.6751 H   0  0  0  0  0  0  0  0  0  0  0  0
    8.9166   -0.3557   11.6933 H   0  0  0  0  0  0  0  0  0  0  0  0
    4.5116    0.4405    9.5647 H   0  0  0  0  0  0  0  0  0  0  0  0
   -1.6350    0.5521   12.7098 H   0  0  0  0  0  0  0  0  0  0  0  0
   -2.9969   -1.1939   10.1541 H   0  0  0  0  0  0  0  0  0  0  0  0
   -4.5119    0.3206    8.8930 H   0  0  0  0  0  0  0  0  0  0  0  0
   -2.1419   -3.0088    2.1197 Ti  0  0  0  0  0  0  0  0  0  0  0  0
    0.2890   -1.6948    1.4324 Ti  0  0  0  0  0  0  0  0  0  0  0  0
    1.9031   -3.0677   -0.7293 Ti  0  0  0  0  0  0  0  0  0  0  0  0
   -2.5215   -0.2519    1.3037 Ti  0  0  0  0  0  0  0  0  0  0  0  0
    2.1420    0.4995    2.2044 Ti  0  0  0  0  0  0  0  0  0  0  0  0
   -0.6814    0.1896    3.6812 Ti  0  0  0  0  0  0  0  0  0  0  0  0
   -2.0368   -3.0777   -1.2005 Ti  0  0  0  0  0  0  0  0  0  0  0  0
   -0.6053   -0.7709   -2.0351 Ti  0  0  0  0  0  0  0  0  0  0  0  0
    1.9455   -1.5873   -3.4124 Ti  0  0  0  0  0  0  0  0  0  0  0  0
   -1.8782    1.7466   -1.2400 Ti  0  0  0  0  0  0  0  0  0  0  0  0
    2.4125    0.4542   -0.7742 Ti  0  0  0  0  0  0  0  0  0  0  0  0
    0.8177    1.8385   -2.9400 Ti  0  0  0  0  0  0  0  0  0  0  0  0
   -3.6784    1.2814    0.6007 C   0  0  0  0  0  0  0  0  0  0  0  0
    4.1282    0.4828    0.3873 C   0  0  0  0  0  0  0  0  0  0  0  0
    0.4555    2.2672    0.3497 C   0  0  0  0  0  0  0  0  0  0  0  0
   -3.6667    2.1188   -0.3139 C   0  0  0  0  0  0  0  0  0  0  0  0
    4.1160    0.6322    1.6214 C   0  0  0  0  0  0  0  0  0  0  0  0
   -0.6352    2.7410   -0.1189 C   0  0  0  0  0  0  0  0  0  0  0  0
    1.6301    1.7810    0.7342 C   0  0  0  0  0  0  0  0  0  0  0  0
   -3.0935   -1.9569    1.0379 O   0  0  0  0  0  0  0  0  0  0  0  0
   -0.4872   -2.6058    2.7012 O   0  0  0  0  0  0  0  0  0  0  0  0
    0.3141   -2.8889    0.1450 O   0  0  0  0  0  0  0  0  0  0  0  0
   -0.8008   -0.4359    0.9712 O   0  0  0  0  0  0  0  0  0  0  0  0
    1.9029   -1.1583    1.4694 O   0  0  0  0  0  0  0  0  0  0  0  0
   -2.3227   -0.1139    3.0248 O   0  0  0  0  0  0  0  0  0  0  0  0
    1.0138    0.4416    3.5688 O   0  0  0  0  0  0  0  0  0  0  0  0
   -1.7720   -4.5879   -1.6528 O   0  0  0  0  0  0  0  0  0  0  0  0
    0.1906   -1.1892   -3.5340 O   0  0  0  0  0  0  0  0  0  0  0  0
    2.8314   -2.1702   -1.9180 O   0  0  0  0  0  0  0  0  0  0  0  0
   -2.0546   -0.2244   -1.3375 O   0  0  0  0  0  0  0  0  0  0  0  0
    0.7685   -0.3906   -1.0637 O   0  0  0  0  0  0  0  0  0  0  0  0
   -0.9000    1.6493   -2.8186 O   0  0  0  0  0  0  0  0  0  0  0  0
    2.4153    1.3575   -2.2641 O   0  0  0  0  0  0  0  0  0  0  0  0
  1  2  1  0  0  0  0
  2  3  4  0  0  0  0
  3  4  2  0  0  0  0
  3  5  1  0  0  0  0
  5  6  4  0  0  0  0
  6  7  4  0  0  0  0
  7  8  1  0  0  0  0
  8  9  1  0  0  0  0
  9 10  4  0  0  0  0
 10 11  4  0  0  0  0
 11 12  4  0  0  0  0
 12 13  1  0  0  0  0
 13 14  1  0  0  0  0
 14 15  2  0  0  0  0
 14 16  1  0  0  0  0
 16 17  1  0  0  0  0
 17 18  4  0  0  0  0
 18 19  4  0  0  0  0
 19 20  4  0  0  0  0
 20 21  1  0  0  0  0
 20 22  4  0  0  0  0
 22 23  1  0  0  0  0
 23 24  1  0  0  0  0
 23 25  1  0  0  0  0
 23 26  1  0  0  0  0
 17 27  4  0  0  0  0
 22 27  4  0  0  0  0
 12 28  4  0  0  0  0
 28 29  1  0  0  0  0
  9 30  4  0  0  0  0
 28 30  4  0  0  0  0
  7 31  4  0  0  0  0
 31 32  4  0  0  0  0
  5 33  4  0  0  0  0
 32 33  4  0  0  0  0
  1 34  1  0  0  0  0
  1 35  1  0  0  0  0
  1 36  1  0  0  0  0
  2 37  1  0  0  0  0
  6 38  1  0  0  0  0
 10 39  1  0  0  0  0
 11 40  1  0  0  0  0
 13 41  1  0  0  0  0
 16 42  1  0  0  0  0
 18 43  1  0  0  0  0
 19 44  1  0  0  0  0
 27 45  1  0  0  0  0
 30 46  1  0  0  0  0
 31 47  1  0  0  0  0
 32 48  1  0  0  0  0
 49 55  1  0  0  0  0
 55 56  1  0  0  0  0
 51 57  1  0  0  0  0
 52 61  1  0  0  0  0
 59 62  1  0  0  0  0
 58 64  1  0  0  0  0
 61 64  3  0  0  0  0
 53 65  1  0  0  0  0
 62 65  3  0  0  0  0
 58 66  1  0  0  0  0
 63 66  2  0  0  0  0
 53 67  1  0  0  0  0
 59 67  1  0  0  0  0
 63 67  2  0  0  0  0
 49 68  1  0  0  0  0
 52 68  1  0  0  0  0
 49 69  1  0  0  0  0
 50 69  1  0  0  0  0
 50 70  1  0  0  0  0
 51 70  1  0  0  0  0
 50 71  1  0  0  0  0
 52 71  1  0  0  0  0
 50 72  1  0  0  0  0
 53 72  1  0  0  0  0
 52 73  1  0  0  0  0
 54 73  1  0  0  0  0
 53 74  1  0  0  0  0
 54 74  1  0  0  0  0
 55 75  2  0  0  0  0
 56 76  1  0  0  0  0
 57 76  1  0  0  0  0
 51 77  1  0  0  0  0
 57 77  1  0  0  0  0
 56 78  1  0  0  0  0
 58 78  1  0  0  0  0
 56 79  1  0  0  0  0
 59 79  1  0  0  0  0
 58 80  1  0  0  0  0
 60 80  1  0  0  0  0
 59 81  1  0  0  0  0
 60 81  1  0  0  0  0
M  END
