 xtb: 6.7.1pre (5071a88)
          08312621553D

 81 91  0     0  0            999 V2000
    9.5689    0.7614   10.3710 C   0  0  0  0  0  0  0  0  0  0  0  0
    8.3664    0.1696   10.8896 N   0  0  0  0  0  0  0  0  0  0  0  0
    7.4224    0.8978   11.5821 C   0  0  0  0  0  0  0  0  0  0  0  0
    7.5573    2.0726   11.9034 O   0  0  0  0  0  0  0  0  0  0  0  0
    6.1763    0.1329   11.9129 C   0  0  0  0  0  0  0  0  0  0  0  0
    5.1677    0.7430   12.6406 C   0  0  0  0  0  0  0  0  0  0  0  0
    4.0272   -0.0033   12.9066 C   0  0  0  0  0  0  0  0  0  0  0  0
    3.0476    0.6011   13.6612 O   0  0  0  0  0  0  0  0  0  0  0  0
    1.7447    0.4540   13.2450 C   0  0  0  0  0  0  0  0  0  0  0  0
    1.3438    0.6684   11.9229 C   0  0  0  0  0  0  0  0  0  0  0  0
   -0.0040    0.5364   11.5644 C   0  0  0  0  0  0  0  0  0  0  0  0
   -0.9570    0.2042   12.5277 C   0  0  0  0  0  0  0  0  0  0  0  0
   -2.3374    0.0560   12.2688 N   0  0  0  0  0  0  0  0  0  0  0  0
   -2.9651    0.0207   11.0350 C   0  0  0  0  0  0  0  0  0  0  0  0
   -2.3843    0.0325    9.9582 O   0  0  0  0  0  0  0  0  0  0  0  0
   -4.3423   -0.0294   11.1975 N   0  0  0  0  0  0  0  0  0  0  0  0
   -5.3212   -0.1641   10.1918 C   0  0  0  0  0  0  0  0  0  0  0  0
   -5.0353   -0.4273    8.8539 C   0  0  0  0  0  0  0  0  0  0  0  0
   -6.0691   -0.5545    7.9207 C   0  0  0  0  0  0  0  0  0  0  0  0
   -7.4020   -0.4244    8.3155 C   0  0  0  0  0  0  0  0  0  0  0  0
   -8.6163   -0.5966    7.1020 Cl  0  0  0  0  0  0  0  0  0  0  0  0
   -7.7170   -0.1672    9.6525 C   0  0  0  0  0  0  0  0  0  0  0  0
   -9.1425   -0.0251   10.1113 C   0  0  0  0  0  0  0  0  0  0  0  0
   -9.8871   -1.1442    9.8996 F   0  0  0  0  0  0  0  0  0  0  0  0
   -9.2438    0.2238   11.4510 F   0  0  0  0  0  0  0  0  0  0  0  0
   -9.8007    1.0010    9.5070 F   0  0  0  0  0  0  0  0  0  0  0  0
   -6.6620   -0.0414   10.5816 C   0  0  0  0  0  0  0  0  0  0  0  0
   -0.5351    0.0274   13.8529 C   0  0  0  0  0  0  0  0  0  0  0  0
   -1.4425   -0.2743   14.7964 F   0  0  0  0  0  0  0  0  0  0  0  0
    0.7999    0.1532   14.2209 C   0  0  0  0  0  0  0  0  0  0  0  0
    3.9413   -1.3272   12.4803 C   0  0  0  0  0  0  0  0  0  0  0  0
    5.0014   -1.8480   11.7583 C   0  0  0  0  0  0  0  0  0  0  0  0
    6.1177   -1.1521   11.4554 N   0  0  0  0  0  0  0  0  0  0  0  0
    9.3423    1.2174    9.4038 H   0  0  0  0  0  0  0  0  0  0  0  0
   10.3158   -0.0250   10.2415 H   0  0  0  0  0  0  0  0  0  0  0  0
    9.9458    1.5268   11.0544 H   0  0  0  0  0  0  0  0  0  0  0  0
    8.0828   -0.7626   10.5981 H   0  0  0  0  0  0  0  0  0  0  0  0
    5.2651    1.7668   12.9849 H   0  0  0  0  0  0  0  0  0  0  0  0
    2.0673    0.9505   11.1615 H   0  0  0  0  0  0  0  0  0  0  0  0
   -0.2766    0.7155   10.5284 H   0  0  0  0  0  0  0  0  0  0  0  0
   -2.8920   -0.1953   13.0765 H   0  0  0  0  0  0  0  0  0  0  0  0
   -4.6801    0.1770   12.1256 H   0  0  0  0  0  0  0  0  0  0  0  0
   -4.0160   -0.5463    8.4978 H   0  0  0  0  0  0  0  0  0  0  0  0
   -5.8193   -0.7579    6.8812 H   0  0  0  0  0  0  0  0  0  0  0  0
   -6.9037    0.1589   11.6251 H   0  0  0  0  0  0  0  0  0  0  0  0
    1.0917    0.0145   15.2563 H   0  0  0  0  0  0  0  0  0  0  0  0
    3.0790   -1.9443   12.7056 H   0  0  0  0  0  0  0  0  0  0  0  0
    4.9800   -2.8733   11.3979 H   0  0  0  0  0  0  0  0  0  0  0  0
   -2.1419   -3.0088    2.1197 Ti  0  0  0  0  0  0  0  0  0  0  0  0
    0.2890   -1.6948    1.4324 Ti  0  0  0  0  0  0  0  0  0  0  0  0
    1.9031   -3.0677   -0.7293 Ti  0  0  0  0  0  0  0  0  0  0  0  0
   -2.5215   -0.2519    1.3037 Ti  0  0  0  0  0  0  0  0  0  0  0  0
    2.1420    0.4995    2.2044 Ti  0  0  0  0  0  0  0  0  0  0  0  0
   -0.6814    0.1896    3.6812 Ti  0  0  0  0  0  0  0  0  0  0  0  0
   -2.0368   -3.0777   -1.2005 Ti  0  0  0  0  0  0  0  0  0  0  0  0
   -0.6053   -0.7709   -2.0351 Ti  0  0  0  0  0  0  0  0  0  0  0  0
    1.9455   -1.5873   -3.4124 Ti  0  0  0  0  0  0  0  0  0  0  0  0
   -1.8782    1.7466   -1.2400 Ti  0  0  0  0  0  0  0  0  0  0  0  0
    2.4125    0.4542   -0.7742 Ti  0  0  0  0  0  0  0  0  0  0  0  0
    0.8177    1.8385   -2.9400 Ti  0  0  0  0  0  0  0  0  0  0  0  0
   -3.6784    1.2814    0.6007 C   0  0  0  0  0  0  0  0  0  0  0  0
    4.1282    0.4828    0.3873 C   0  0  0  0  0  0  0  0  0  0  0  0
    0.4555    2.2672    0.3497 C   0  0  0  0  0  0  0  0  0  0  0  0
   -3.6667    2.1188   -0.3139 C   0  0  0  0  0  0  0  0  0  0  0  0
    4.1160    0.6322    1.6214 C   0  0  0  0  0  0  0  0  0  0  0  0
   -0.6352    2.7410   -0.1189 C   0  0  0  0  0  0  0  0  0  0  0  0
    1.6301    1.7810    0.7342 C   0  0  0  0  0  0  0  0  0  0  0  0
   -3.0935   -1.9569    1.0379 O   0  0  0  0  0  0  0  0  0  0  0  0
   -0.4872   -2.6058    2.7012 O   0  0  0  0  0  0  0  0  0  0  0  0
    0.3141   -2.8889    0.1450 O   0  0  0  0  0  0  0  0  0  0  0  0
   -0.8008   -0.4359    0.9712 O   0  0  0  0  0  0  0  0  0  0  0  0
    1.9029   -1.1583    1.4694 O   0  0  0  0  0  0  0  0  0  0  0  0
   -2.3227   -0.1139    3.0248 O   0  0  0  0  0  0  0  0  0  0  0  0
    1.0138    0.4416    3.5688 O   0  0  0  0  0  0  0  0  0  0  0  0
   -1.7720   -4.5879   -1.6528 O   0  0  0  0  0  0  0  0  0  0  0  0
    0.1906   -1.1892   -3.5340 O   0  0  0  0  0  0  0  0  0  0  0  0
    2.8314   -2.1702   -1.9180 O   0  0  0  0  0  0  0  0  0  0  0  0
   -2.0546   -0.2244   -1.3375 O   0  0  0  0  0  0  0  0  0  0  0  0
    0.7685   -0.3906   -1.0637 O   0  0  0  0  0  0  0  0  0  0  0  0
   -0.9000    1.6493   -2.8186 O   0  0  0  0  0  0  0  0  0  0  0  0
    2.4153    1.3575   -2.2641 O   0  0  0  0  0  0  0  0  0  0  0  0
  1  2  1  0  0  0  0
  2  3  4  0  0  0  0
  3  4  2  0  0  0  0
  3  5  1  0  0  0  0
  5  6  4  0  0  0  0
  6  7  4  0  0  0  0
  7  8  1  0  0  0  0
  8  9  1  0  0  0  0
  9 10  4  0  0  0  0
 10 11  4  0  0  0  0
 11 12  4  0  0  0  0
 12 13  1  0  0  0  0
 13 14  1  0  0  0  0
 14 15  2  0  0  0  0
 14 16  1  0  0  0  0
 16 17  1  0  0  0  0
 17 18  4  0  0  0  0
 18 19  4  0  0  0  0
 19 20  4  0  0  0  0
 20 21  1  0  0  0  0
 20 22  4  0  0  0  0
 22 23  1  0  0  0  0
 23 24  1  0  0  0  0
 23 25  1  0  0  0  0
 23 26  1  0  0  0  0
 17 27  4  0  0  0  0
 22 27  4  0  0  0  0
 12 28  4  0  0  0  0
 28 29  1  0  0  0  0
  9 30  4  0  0  0  0
 28 30  4  0  0  0  0
  7 31  4  0  0  0  0
 31 32  4  0  0  0  0
  5 33  4  0  0  0  0
 32 33  4  0  0  0  0
  1 34  1  0  0  0  0
  1 35  1  0  0  0  0
  1 36  1  0  0  0  0
  2 37  1  0  0  0  0
  6 38  1  0  0  0  0
 10 39  1  0  0  0  0
 11 40  1  0  0  0  0
 13 41  1  0  0  0  0
 16 42  1  0  0  0  0
 18 43  1  0  0  0  0
 19 44  1  0  0  0  0
 27 45  1  0  0  0  0
 30 46  1  0  0  0  0
 31 47  1  0  0  0  0
 32 48  1  0  0  0  0
 49 55  1  0  0  0  0
 55 56  1  0  0  0  0
 51 57  1  0  0  0  0
 52 61  1  0  0  0  0
 59 62  1  0  0  0  0
 58 64  1  0  0  0  0
 61 64  3  0  0  0  0
 53 65  1  0  0  0  0
 62 65  3  0  0  0  0
 58 66  1  0  0  0  0
 63 66  2  0  0  0  0
 53 67  1  0  0  0  0
 59 67  1  0  0  0  0
 63 67  2  0  0  0  0
 49 68  1  0  0  0  0
 52 68  1  0  0  0  0
 49 69  1  0  0  0  0
 50 69  1  0  0  0  0
 50 70  1  0  0  0  0
 51 70  1  0  0  0  0
 50 71  1  0  0  0  0
 52 71  1  0  0  0  0
 50 72  1  0  0  0  0
 53 72  1  0  0  0  0
 52 73  1  0  0  0  0
 54 73  1  0  0  0  0
 53 74  1  0  0  0  0
 54 74  1  0  0  0  0
 55 75  2  0  0  0  0
 56 76  1  0  0  0  0
 57 76  1  0  0  0  0
 51 77  1  0  0  0  0
 57 77  1  0  0  0  0
 56 78  1  0  0  0  0
 58 78  1  0  0  0  0
 56 79  1  0  0  0  0
 59 79  1  0  0  0  0
 58 80  1  0  0  0  0
 60 80  1  0  0  0  0
 59 81  1  0  0  0  0
 60 81  1  0  0  0  0
M  END
