 xtb: 6.7.1pre (5071a88)
          08312620353D

 81 93  0     0  0            999 V2000
   -8.8898    2.9144    6.1834 C   0  0  0  0  0  0  0  0  0  0  0  0
   -7.6865    2.2198    5.8168 N   0  0  0  0  0  0  0  0  0  0  0  0
   -7.0003    1.4108    6.6975 C   0  0  0  0  0  0  0  0  0  0  0  0
   -7.2872    1.2813    7.8817 O   0  0  0  0  0  0  0  0  0  0  0  0
   -5.8509    0.6695    6.0837 C   0  0  0  0  0  0  0  0  0  0  0  0
   -5.0573   -0.1456    6.8744 C   0  0  0  0  0  0  0  0  0  0  0  0
   -4.0003   -0.8042    6.2600 C   0  0  0  0  0  0  0  0  0  0  0  0
   -3.2428   -1.6371    7.0520 O   0  0  0  0  0  0  0  0  0  0  0  0
   -1.8771   -1.6031    6.8911 C   0  0  0  0  0  0  0  0  0  0  0  0
   -1.2138   -2.8305    6.8657 C   0  0  0  0  0  0  0  0  0  0  0  0
    0.1777   -2.8740    6.7348 C   0  0  0  0  0  0  0  0  0  0  0  0
    0.9129   -1.6883    6.6204 C   0  0  0  0  0  0  0  0  0  0  0  0
    2.3150   -1.7946    6.4824 N   0  0  0  0  0  0  0  0  0  0  0  0
    3.0988   -0.8927    5.7739 C   0  0  0  0  0  0  0  0  0  0  0  0
    2.6619   -0.0474    5.0061 O   0  0  0  0  0  0  0  0  0  0  0  0
    4.4391   -1.1308    6.0352 N   0  0  0  0  0  0  0  0  0  0  0  0
    5.5509   -0.5202    5.4227 C   0  0  0  0  0  0  0  0  0  0  0  0
    6.8030   -0.7426    6.0018 C   0  0  0  0  0  0  0  0  0  0  0  0
    7.9516   -0.1762    5.4450 C   0  0  0  0  0  0  0  0  0  0  0  0
    7.8627    0.6145    4.2970 C   0  0  0  0  0  0  0  0  0  0  0  0
    9.3289    1.2769    3.6725 Cl  0  0  0  0  0  0  0  0  0  0  0  0
    6.6227    0.8432    3.6920 C   0  0  0  0  0  0  0  0  0  0  0  0
    6.4993    1.6832    2.4493 C   0  0  0  0  0  0  0  0  0  0  0  0
    6.9218    2.9651    2.6289 F   0  0  0  0  0  0  0  0  0  0  0  0
    5.2198    1.7862    1.9876 F   0  0  0  0  0  0  0  0  0  0  0  0
    7.2160    1.1865    1.4023 F   0  0  0  0  0  0  0  0  0  0  0  0
    5.4712    0.2647    4.2687 C   0  0  0  0  0  0  0  0  0  0  0  0
    0.2351   -0.4638    6.7070 C   0  0  0  0  0  0  0  0  0  0  0  0
    0.9048    0.6968    6.7518 F   0  0  0  0  0  0  0  0  0  0  0  0
   -1.1505   -0.4147    6.8429 C   0  0  0  0  0  0  0  0  0  0  0  0
   -3.7917   -0.6649    4.8890 C   0  0  0  0  0  0  0  0  0  0  0  0
   -4.6389    0.1723    4.1834 C   0  0  0  0  0  0  0  0  0  0  0  0
   -5.6643    0.8485    4.7434 N   0  0  0  0  0  0  0  0  0  0  0  0
   -9.0123    3.7725    5.5188 H   0  0  0  0  0  0  0  0  0  0  0  0
   -8.8383    3.2501    7.2225 H   0  0  0  0  0  0  0  0  0  0  0  0
   -9.7349    2.2317    6.0634 H   0  0  0  0  0  0  0  0  0  0  0  0
   -7.4028    2.1572    4.8420 H   0  0  0  0  0  0  0  0  0  0  0  0
   -5.2532   -0.2596    7.9350 H   0  0  0  0  0  0  0  0  0  0  0  0
   -1.7815   -3.7549    6.9432 H   0  0  0  0  0  0  0  0  0  0  0  0
    0.6689   -3.8429    6.7040 H   0  0  0  0  0  0  0  0  0  0  0  0
    2.7055   -2.7243    6.5338 H   0  0  0  0  0  0  0  0  0  0  0  0
    4.6165   -1.6446    6.8863 H   0  0  0  0  0  0  0  0  0  0  0  0
    6.9059   -1.3520    6.8962 H   0  0  0  0  0  0  0  0  0  0  0  0
    8.9166   -0.3557    5.9144 H   0  0  0  0  0  0  0  0  0  0  0  0
    4.5116    0.4405    3.7858 H   0  0  0  0  0  0  0  0  0  0  0  0
   -1.6350    0.5521    6.9309 H   0  0  0  0  0  0  0  0  0  0  0  0
   -2.9969   -1.1939    4.3752 H   0  0  0  0  0  0  0  0  0  0  0  0
   -4.5119    0.3206    3.1141 H   0  0  0  0  0  0  0  0  0  0  0  0
   -3.0000   -2.6000    1.2500 Ti  0  0  0  0  0  0  0  0  0  0  0  0
    0.0000   -2.6000    1.2500 Ti  0  0  0  0  0  0  0  0  0  0  0  0
    3.0000   -2.6000    1.2500 Ti  0  0  0  0  0  0  0  0  0  0  0  0
   -1.5000    0.0000    1.2500 Ti  0  0  0  0  0  0  0  0  0  0  0  0
    1.5000    0.0000    1.2500 Ti  0  0  0  0  0  0  0  0  0  0  0  0
    0.0000    2.6000    1.2500 Ti  0  0  0  0  0  0  0  0  0  0  0  0
   -3.0000   -2.6000   -1.2500 Ti  0  0  0  0  0  0  0  0  0  0  0  0
    0.0000   -2.6000   -1.2500 Ti  0  0  0  0  0  0  0  0  0  0  0  0
    3.0000   -2.6000   -1.2500 Ti  0  0  0  0  0  0  0  0  0  0  0  0
   -1.5000    0.0000   -1.2500 Ti  0  0  0  0  0  0  0  0  0  0  0  0
    1.5000    0.0000   -1.2500 Ti  0  0  0  0  0  0  0  0  0  0  0  0
    0.0000    2.6000   -1.2500 Ti  0  0  0  0  0  0  0  0  0  0  0  0
   -1.5000   -1.3000    0.0000 C   0  0  0  0  0  0  0  0  0  0  0  0
    1.5000   -1.3000    0.0000 C   0  0  0  0  0  0  0  0  0  0  0  0
    0.0000    1.3000    0.0000 C   0  0  0  0  0  0  0  0  0  0  0  0
   -3.0000    0.0000    0.0000 C   0  0  0  0  0  0  0  0  0  0  0  0
    3.0000    0.0000    0.0000 C   0  0  0  0  0  0  0  0  0  0  0  0
   -1.5000    2.6000    0.0000 C   0  0  0  0  0  0  0  0  0  0  0  0
    1.5000    2.6000    0.0000 C   0  0  0  0  0  0  0  0  0  0  0  0
   -3.0000   -2.6000    2.4500 O   0  0  0  0  0  0  0  0  0  0  0  0
    0.0000   -2.6000    2.4500 O   0  0  0  0  0  0  0  0  0  0  0  0
    3.0000   -2.6000    2.4500 O   0  0  0  0  0  0  0  0  0  0  0  0
   -1.5000    0.0000    2.4500 O   0  0  0  0  0  0  0  0  0  0  0  0
    1.5000    0.0000    2.4500 O   0  0  0  0  0  0  0  0  0  0  0  0
   -1.5000    2.6000    2.4500 O   0  0  0  0  0  0  0  0  0  0  0  0
    1.5000    2.6000    2.4500 O   0  0  0  0  0  0  0  0  0  0  0  0
   -3.0000   -2.6000   -2.4500 O   0  0  0  0  0  0  0  0  0  0  0  0
    0.0000   -2.6000   -2.4500 O   0  0  0  0  0  0  0  0  0  0  0  0
    3.0000   -2.6000   -2.4500 O   0  0  0  0  0  0  0  0  0  0  0  0
   -1.5000    0.0000   -2.4500 O   0  0  0  0  0  0  0  0  0  0  0  0
    1.5000    0.0000   -2.4500 O   0  0  0  0  0  0  0  0  0  0  0  0
   -1.5000    2.6000   -2.4500 O   0  0  0  0  0  0  0  0  0  0  0  0
    1.5000    2.6000   -2.4500 O   0  0  0  0  0  0  0  0  0  0  0  0
  1  2  1  0  0  0  0
  2  3  4  0  0  0  0
  3  4  2  0  0  0  0
  3  5  1  0  0  0  0
  5  6  4  0  0  0  0
  6  7  4  0  0  0  0
  7  8  1  0  0  0  0
  8  9  1  0  0  0  0
  9 10  4  0  0  0  0
 10 11  4  0  0  0  0
 11 12  4  0  0  0  0
 12 13  1  0  0  0  0
 13 14  1  0  0  0  0
 14 15  2  0  0  0  0
 14 16  1  0  0  0  0
 16 17  1  0  0  0  0
 17 18  4  0  0  0  0
 18 19  4  0  0  0  0
 19 20  4  0  0  0  0
 20 21  1  0  0  0  0
 20 22  4  0  0  0  0
 22 23  1  0  0  0  0
 23 24  1  0  0  0  0
 23 25  1  0  0  0  0
 23 26  1  0  0  0  0
 17 27  4  0  0  0  0
 22 27  4  0  0  0  0
 12 28  4  0  0  0  0
 28 29  1  0  0  0  0
  9 30  4  0  0  0  0
 28 30  4  0  0  0  0
  7 31  4  0  0  0  0
 31 32  4  0  0  0  0
  5 33  4  0  0  0  0
 32 33  4  0  0  0  0
  1 34  1  0  0  0  0
  1 35  1  0  0  0  0
  1 36  1  0  0  0  0
  2 37  1  0  0  0  0
  6 38  1  0  0  0  0
 10 39  1  0  0  0  0
 11 40  1  0  0  0  0
 13 41  1  0  0  0  0
 16 42  1  0  0  0  0
 18 43  1  0  0  0  0
 19 44  1  0  0  0  0
 27 45  1  0  0  0  0
 30 46  1  0  0  0  0
 31 47  1  0  0  0  0
 32 48  1  0  0  0  0
 49 50  1  0  0  0  0
 50 51  1  0  0  0  0
 49 55  1  0  0  0  0
 50 56  1  0  0  0  0
 55 56  1  0  0  0  0
 51 57  1  0  0  0  0
 56 57  1  0  0  0  0
 52 61  1  0  0  0  0
 58 61  1  0  0  0  0
 53 62  1  0  0  0  0
 59 62  1  0  0  0  0
 54 63  1  0  0  0  0
 60 63  1  0  0  0  0
 52 64  1  0  0  0  0
 58 64  1  0  0  0  0
 61 64  1  0  0  0  0
 53 65  1  0  0  0  0
 59 65  1  0  0  0  0
 62 65  1  0  0  0  0
 54 66  1  0  0  0  0
 60 66  1  0  0  0  0
 63 66  1  0  0  0  0
 54 67  1  0  0  0  0
 60 67  1  0  0  0  0
 63 67  1  0  0  0  0
 49 68  2  0  0  0  0
 50 69  2  0  0  0  0
 51 70  2  0  0  0  0
 52 71  2  0  0  0  0
 53 72  2  0  0  0  0
 54 73  1  0  0  0  0
 66 73  1  0  0  0  0
 54 74  1  0  0  0  0
 67 74  1  0  0  0  0
 55 75  2  0  0  0  0
 56 76  2  0  0  0  0
 57 77  2  0  0  0  0
 58 78  2  0  0  0  0
 59 79  2  0  0  0  0
 60 80  1  0  0  0  0
 66 80  1  0  0  0  0
 60 81  1  0  0  0  0
 67 81  1  0  0  0  0
M  END
