 xtb: 6.7.1pre (5071a88)
          08312621183D

 64 72  0     0  0            999 V2000
    4.1564    1.4595    7.5167 O   0  0  0  0  0  0  0  0  0  0  0  0
    4.1503    0.2596    7.7997 N   0  0  0  0  0  0  0  0  0  0  0  0
    2.7913   -0.3083    8.1144 N   0  0  0  0  0  0  0  0  0  0  0  0
    2.8221   -1.7019    8.5621 C   0  0  0  0  0  0  0  0  0  0  0  0
    3.1419   -1.8463   10.0470 C   0  0  0  0  0  0  0  0  0  0  0  0
    1.7771   -1.3307   11.0715 Cl  0  0  0  0  0  0  0  0  0  0  0  0
    1.6257    0.4267    7.8644 C   0  0  0  0  0  0  0  0  0  0  0  0
    1.5662    1.4818    7.2374 O   0  0  0  0  0  0  0  0  0  0  0  0
    0.4702   -0.1573    8.3687 N   0  0  0  0  0  0  0  0  0  0  0  0
   -0.8286    0.4935    8.1993 C   0  0  0  0  0  0  0  0  0  0  0  0
   -1.0030    1.6701    9.1801 C   0  0  0  0  0  0  0  0  0  0  0  0
   -1.7275    1.2477   10.4537 C   0  0  0  0  0  0  0  0  0  0  0  0
   -3.1303    0.7126   10.1595 C   0  0  0  0  0  0  0  0  0  0  0  0
   -3.2577    0.0600    8.7821 C   0  0  0  0  0  0  0  0  0  0  0  0
   -1.9420   -0.5598    8.3311 C   0  0  0  0  0  0  0  0  0  0  0  0
    3.5966   -2.2172    7.9797 H   0  0  0  0  0  0  0  0  0  0  0  0
    1.8787   -2.2020    8.3159 H   0  0  0  0  0  0  0  0  0  0  0  0
    4.0170   -1.2567   10.3357 H   0  0  0  0  0  0  0  0  0  0  0  0
    3.3376   -2.8956   10.2867 H   0  0  0  0  0  0  0  0  0  0  0  0
    0.5950   -0.6051    9.2682 H   0  0  0  0  0  0  0  0  0  0  0  0
   -0.8545    0.9033    7.1812 H   0  0  0  0  0  0  0  0  0  0  0  0
   -0.0386    2.1231    9.4369 H   0  0  0  0  0  0  0  0  0  0  0  0
   -1.5944    2.4551    8.6908 H   0  0  0  0  0  0  0  0  0  0  0  0
   -1.1412    0.4730   10.9633 H   0  0  0  0  0  0  0  0  0  0  0  0
   -1.7966    2.0924   11.1485 H   0  0  0  0  0  0  0  0  0  0  0  0
   -3.8616    1.5269   10.2310 H   0  0  0  0  0  0  0  0  0  0  0  0
   -3.4010   -0.0094   10.9396 H   0  0  0  0  0  0  0  0  0  0  0  0
   -4.0477   -0.6991    8.8066 H   0  0  0  0  0  0  0  0  0  0  0  0
   -3.5716    0.8132    8.0485 H   0  0  0  0  0  0  0  0  0  0  0  0
   -1.6543   -1.3393    9.0494 H   0  0  0  0  0  0  0  0  0  0  0  0
   -2.0756   -1.0697    7.3693 H   0  0  0  0  0  0  0  0  0  0  0  0
   -2.1419   -3.0088    2.1197 Ti  0  0  0  0  0  0  0  0  0  0  0  0
    0.2890   -1.6948    1.4324 Ti  0  0  0  0  0  0  0  0  0  0  0  0
    1.9031   -3.0677   -0.7293 Ti  0  0  0  0  0  0  0  0  0  0  0  0
   -2.5215   -0.2519    1.3037 Ti  0  0  0  0  0  0  0  0  0  0  0  0
    2.1420    0.4995    2.2044 Ti  0  0  0  0  0  0  0  0  0  0  0  0
   -0.6814    0.1896    3.6812 Ti  0  0  0  0  0  0  0  0  0  0  0  0
   -2.0368   -3.0777   -1.2005 Ti  0  0  0  0  0  0  0  0  0  0  0  0
   -0.6053   -0.7709   -2.0351 Ti  0  0  0  0  0  0  0  0  0  0  0  0
    1.9455   -1.5873   -3.4124 Ti  0  0  0  0  0  0  0  0  0  0  0  0
   -1.8782    1.7466   -1.2400 Ti  0  0  0  0  0  0  0  0  0  0  0  0
    2.4125    0.4542   -0.7742 Ti  0  0  0  0  0  0  0  0  0  0  0  0
    0.8177    1.8385   -2.9400 Ti  0  0  0  0  0  0  0  0  0  0  0  0
   -3.6784    1.2814    0.6007 C   0  0  0  0  0  0  0  0  0  0  0  0
    4.1282    0.4828    0.3873 C   0  0  0  0  0  0  0  0  0  0  0  0
    0.4555    2.2672    0.3497 C   0  0  0  0  0  0  0  0  0  0  0  0
   -3.6667    2.1188   -0.3139 C   0  0  0  0  0  0  0  0  0  0  0  0
    4.1160    0.6322    1.6214 C   0  0  0  0  0  0  0  0  0  0  0  0
   -0.6352    2.7410   -0.1189 C   0  0  0  0  0  0  0  0  0  0  0  0
    1.6301    1.7810    0.7342 C   0  0  0  0  0  0  0  0  0  0  0  0
   -3.0935   -1.9569    1.0379 O   0  0  0  0  0  0  0  0  0  0  0  0
   -0.4872   -2.6058    2.7012 O   0  0  0  0  0  0  0  0  0  0  0  0
    0.3141   -2.8889    0.1450 O   0  0  0  0  0  0  0  0  0  0  0  0
   -0.8008   -0.4359    0.9712 O   0  0  0  0  0  0  0  0  0  0  0  0
    1.9029   -1.1583    1.4694 O   0  0  0  0  0  0  0  0  0  0  0  0
   -2.3227   -0.1139    3.0248 O   0  0  0  0  0  0  0  0  0  0  0  0
    1.0138    0.4416    3.5688 O   0  0  0  0  0  0  0  0  0  0  0  0
   -1.7720   -4.5879   -1.6528 O   0  0  0  0  0  0  0  0  0  0  0  0
    0.1906   -1.1892   -3.5340 O   0  0  0  0  0  0  0  0  0  0  0  0
    2.8314   -2.1702   -1.9180 O   0  0  0  0  0  0  0  0  0  0  0  0
   -2.0546   -0.2244   -1.3375 O   0  0  0  0  0  0  0  0  0  0  0  0
    0.7685   -0.3906   -1.0637 O   0  0  0  0  0  0  0  0  0  0  0  0
   -0.9000    1.6493   -2.8186 O   0  0  0  0  0  0  0  0  0  0  0  0
    2.4153    1.3575   -2.2641 O   0  0  0  0  0  0  0  0  0  0  0  0
  1  2  2  0  0  0  0
  2  3  1  0  0  0  0
  3  4  1  0  0  0  0
  4  5  1  0  0  0  0
  5  6  1  0  0  0  0
  3  7  1  0  0  0  0
  7  8  2  0  0  0  0
  7  9  1  0  0  0  0
  9 10  1  0  0  0  0
 10 11  1  0  0  0  0
 11 12  1  0  0  0  0
 12 13  1  0  0  0  0
 13 14  1  0  0  0  0
 10 15  1  0  0  0  0
 14 15  1  0  0  0  0
  4 16  1  0  0  0  0
  4 17  1  0  0  0  0
  5 18  1  0  0  0  0
  5 19  1  0  0  0  0
  9 20  1  0  0  0  0
 10 21  1  0  0  0  0
 11 22  1  0  0  0  0
 11 23  1  0  0  0  0
 12 24  1  0  0  0  0
 12 25  1  0  0  0  0
 13 26  1  0  0  0  0
 13 27  1  0  0  0  0
 14 28  1  0  0  0  0
 14 29  1  0  0  0  0
 15 30  1  0  0  0  0
 15 31  1  0  0  0  0
 32 38  1  0  0  0  0
 38 39  1  0  0  0  0
 34 40  1  0  0  0  0
 35 44  1  0  0  0  0
 42 45  1  0  0  0  0
 41 47  1  0  0  0  0
 44 47  3  0  0  0  0
 36 48  1  0  0  0  0
 45 48  3  0  0  0  0
 41 49  1  0  0  0  0
 46 49  2  0  0  0  0
 36 50  1  0  0  0  0
 42 50  1  0  0  0  0
 46 50  2  0  0  0  0
 32 51  1  0  0  0  0
 35 51  1  0  0  0  0
 32 52  1  0  0  0  0
 33 52  1  0  0  0  0
 33 53  1  0  0  0  0
 34 53  1  0  0  0  0
 33 54  1  0  0  0  0
 35 54  1  0  0  0  0
 33 55  1  0  0  0  0
 36 55  1  0  0  0  0
 35 56  1  0  0  0  0
 37 56  1  0  0  0  0
 36 57  1  0  0  0  0
 37 57  1  0  0  0  0
 38 58  2  0  0  0  0
 39 59  1  0  0  0  0
 40 59  1  0  0  0  0
 34 60  1  0  0  0  0
 40 60  1  0  0  0  0
 39 61  1  0  0  0  0
 41 61  1  0  0  0  0
 39 62  1  0  0  0  0
 42 62  1  0  0  0  0
 41 63  1  0  0  0  0
 43 63  1  0  0  0  0
 42 64  1  0  0  0  0
 43 64  1  0  0  0  0
M  END
