 xtb: 6.7.1pre (5071a88)
          08312621543D

 64 72  0     0  0            999 V2000
    3.7892   -2.6396    9.7529 O   0  0  0  0  0  0  0  0  0  0  0  0
    4.0289   -1.5938    9.1461 N   0  0  0  0  0  0  0  0  0  0  0  0
    2.8128   -0.8250    8.7000 N   0  0  0  0  0  0  0  0  0  0  0  0
    3.1259    0.4697    8.0954 C   0  0  0  0  0  0  0  0  0  0  0  0
    3.2754    1.5545    9.1548 C   0  0  0  0  0  0  0  0  0  0  0  0
    3.4954    3.1447    8.3903 Cl  0  0  0  0  0  0  0  0  0  0  0  0
    1.5240   -1.3476    8.8621 C   0  0  0  0  0  0  0  0  0  0  0  0
    1.2569   -2.4883    9.2326 O   0  0  0  0  0  0  0  0  0  0  0  0
    0.4999   -0.4668    8.5323 N   0  0  0  0  0  0  0  0  0  0  0  0
   -0.9010   -0.8758    8.6505 C   0  0  0  0  0  0  0  0  0  0  0  0
   -1.3377   -0.8725   10.1281 C   0  0  0  0  0  0  0  0  0  0  0  0
   -2.8260   -0.5876   10.2824 C   0  0  0  0  0  0  0  0  0  0  0  0
   -3.2006    0.7842    9.7195 C   0  0  0  0  0  0  0  0  0  0  0  0
   -2.3329    1.2163    8.5356 C   0  0  0  0  0  0  0  0  0  0  0  0
   -1.7871    0.0185    7.7661 C   0  0  0  0  0  0  0  0  0  0  0  0
    4.0539    0.3692    7.5180 H   0  0  0  0  0  0  0  0  0  0  0  0
    2.3435    0.7334    7.3751 H   0  0  0  0  0  0  0  0  0  0  0  0
    2.3896    1.6156    9.7944 H   0  0  0  0  0  0  0  0  0  0  0  0
    4.1417    1.3661    9.7965 H   0  0  0  0  0  0  0  0  0  0  0  0
    0.6662    0.5100    8.7129 H   0  0  0  0  0  0  0  0  0  0  0  0
   -0.9721   -1.8998    8.2616 H   0  0  0  0  0  0  0  0  0  0  0  0
   -1.0948   -1.8390   10.5856 H   0  0  0  0  0  0  0  0  0  0  0  0
   -0.7738   -0.1181   10.6931 H   0  0  0  0  0  0  0  0  0  0  0  0
   -3.3976   -1.3653    9.7603 H   0  0  0  0  0  0  0  0  0  0  0  0
   -3.1165   -0.6434   11.3376 H   0  0  0  0  0  0  0  0  0  0  0  0
   -4.2553    0.7639    9.4193 H   0  0  0  0  0  0  0  0  0  0  0  0
   -3.1227    1.5434   10.5073 H   0  0  0  0  0  0  0  0  0  0  0  0
   -2.9175    1.8607    7.8692 H   0  0  0  0  0  0  0  0  0  0  0  0
   -1.4957    1.8245    8.9005 H   0  0  0  0  0  0  0  0  0  0  0  0
   -2.6355   -0.5721    7.3965 H   0  0  0  0  0  0  0  0  0  0  0  0
   -1.2367    0.3600    6.8812 H   0  0  0  0  0  0  0  0  0  0  0  0
   -2.1419   -3.0088    2.1197 Ti  0  0  0  0  0  0  0  0  0  0  0  0
    0.2890   -1.6948    1.4324 Ti  0  0  0  0  0  0  0  0  0  0  0  0
    1.9031   -3.0677   -0.7293 Ti  0  0  0  0  0  0  0  0  0  0  0  0
   -2.5215   -0.2519    1.3037 Ti  0  0  0  0  0  0  0  0  0  0  0  0
    2.1420    0.4995    2.2044 Ti  0  0  0  0  0  0  0  0  0  0  0  0
   -0.6814    0.1896    3.6812 Ti  0  0  0  0  0  0  0  0  0  0  0  0
   -2.0368   -3.0777   -1.2005 Ti  0  0  0  0  0  0  0  0  0  0  0  0
   -0.6053   -0.7709   -2.0351 Ti  0  0  0  0  0  0  0  0  0  0  0  0
    1.9455   -1.5873   -3.4124 Ti  0  0  0  0  0  0  0  0  0  0  0  0
   -1.8782    1.7466   -1.2400 Ti  0  0  0  0  0  0  0  0  0  0  0  0
    2.4125    0.4542   -0.7742 Ti  0  0  0  0  0  0  0  0  0  0  0  0
    0.8177    1.8385   -2.9400 Ti  0  0  0  0  0  0  0  0  0  0  0  0
   -3.6784    1.2814    0.6007 C   0  0  0  0  0  0  0  0  0  0  0  0
    4.1282    0.4828    0.3873 C   0  0  0  0  0  0  0  0  0  0  0  0
    0.4555    2.2672    0.3497 C   0  0  0  0  0  0  0  0  0  0  0  0
   -3.6667    2.1188   -0.3139 C   0  0  0  0  0  0  0  0  0  0  0  0
    4.1160    0.6322    1.6214 C   0  0  0  0  0  0  0  0  0  0  0  0
   -0.6352    2.7410   -0.1189 C   0  0  0  0  0  0  0  0  0  0  0  0
    1.6301    1.7810    0.7342 C   0  0  0  0  0  0  0  0  0  0  0  0
   -3.0935   -1.9569    1.0379 O   0  0  0  0  0  0  0  0  0  0  0  0
   -0.4872   -2.6058    2.7012 O   0  0  0  0  0  0  0  0  0  0  0  0
    0.3141   -2.8889    0.1450 O   0  0  0  0  0  0  0  0  0  0  0  0
   -0.8008   -0.4359    0.9712 O   0  0  0  0  0  0  0  0  0  0  0  0
    1.9029   -1.1583    1.4694 O   0  0  0  0  0  0  0  0  0  0  0  0
   -2.3227   -0.1139    3.0248 O   0  0  0  0  0  0  0  0  0  0  0  0
    1.0138    0.4416    3.5688 O   0  0  0  0  0  0  0  0  0  0  0  0
   -1.7720   -4.5879   -1.6528 O   0  0  0  0  0  0  0  0  0  0  0  0
    0.1906   -1.1892   -3.5340 O   0  0  0  0  0  0  0  0  0  0  0  0
    2.8314   -2.1702   -1.9180 O   0  0  0  0  0  0  0  0  0  0  0  0
   -2.0546   -0.2244   -1.3375 O   0  0  0  0  0  0  0  0  0  0  0  0
    0.7685   -0.3906   -1.0637 O   0  0  0  0  0  0  0  0  0  0  0  0
   -0.9000    1.6493   -2.8186 O   0  0  0  0  0  0  0  0  0  0  0  0
    2.4153    1.3575   -2.2641 O   0  0  0  0  0  0  0  0  0  0  0  0
  1  2  2  0  0  0  0
  2  3  1  0  0  0  0
  3  4  1  0  0  0  0
  4  5  1  0  0  0  0
  5  6  1  0  0  0  0
  3  7  1  0  0  0  0
  7  8  2  0  0  0  0
  7  9  1  0  0  0  0
  9 10  1  0  0  0  0
 10 11  1  0  0  0  0
 11 12  1  0  0  0  0
 12 13  1  0  0  0  0
 13 14  1  0  0  0  0
 10 15  1  0  0  0  0
 14 15  1  0  0  0  0
  4 16  1  0  0  0  0
  4 17  1  0  0  0  0
  5 18  1  0  0  0  0
  5 19  1  0  0  0  0
  9 20  1  0  0  0  0
 10 21  1  0  0  0  0
 11 22  1  0  0  0  0
 11 23  1  0  0  0  0
 12 24  1  0  0  0  0
 12 25  1  0  0  0  0
 13 26  1  0  0  0  0
 13 27  1  0  0  0  0
 14 28  1  0  0  0  0
 14 29  1  0  0  0  0
 15 30  1  0  0  0  0
 15 31  1  0  0  0  0
 32 38  1  0  0  0  0
 38 39  1  0  0  0  0
 34 40  1  0  0  0  0
 35 44  1  0  0  0  0
 42 45  1  0  0  0  0
 41 47  1  0  0  0  0
 44 47  3  0  0  0  0
 36 48  1  0  0  0  0
 45 48  3  0  0  0  0
 41 49  1  0  0  0  0
 46 49  2  0  0  0  0
 36 50  1  0  0  0  0
 42 50  1  0  0  0  0
 46 50  2  0  0  0  0
 32 51  1  0  0  0  0
 35 51  1  0  0  0  0
 32 52  1  0  0  0  0
 33 52  1  0  0  0  0
 33 53  1  0  0  0  0
 34 53  1  0  0  0  0
 33 54  1  0  0  0  0
 35 54  1  0  0  0  0
 33 55  1  0  0  0  0
 36 55  1  0  0  0  0
 35 56  1  0  0  0  0
 37 56  1  0  0  0  0
 36 57  1  0  0  0  0
 37 57  1  0  0  0  0
 38 58  2  0  0  0  0
 39 59  1  0  0  0  0
 40 59  1  0  0  0  0
 34 60  1  0  0  0  0
 40 60  1  0  0  0  0
 39 61  1  0  0  0  0
 41 61  1  0  0  0  0
 39 62  1  0  0  0  0
 42 62  1  0  0  0  0
 41 63  1  0  0  0  0
 43 63  1  0  0  0  0
 42 64  1  0  0  0  0
 43 64  1  0  0  0  0
M  END
