 xtb: 6.7.1pre (5071a88)
          08312620293D

 64 74  0     0  0            999 V2000
    4.1564    1.4595    4.0281 O   0  0  0  0  0  0  0  0  0  0  0  0
    4.1503    0.2596    4.3111 N   0  0  0  0  0  0  0  0  0  0  0  0
    2.7913   -0.3083    4.6258 N   0  0  0  0  0  0  0  0  0  0  0  0
    2.8221   -1.7019    5.0735 C   0  0  0  0  0  0  0  0  0  0  0  0
    3.1419   -1.8463    6.5584 C   0  0  0  0  0  0  0  0  0  0  0  0
    1.7771   -1.3307    7.5829 Cl  0  0  0  0  0  0  0  0  0  0  0  0
    1.6257    0.4267    4.3758 C   0  0  0  0  0  0  0  0  0  0  0  0
    1.5662    1.4818    3.7488 O   0  0  0  0  0  0  0  0  0  0  0  0
    0.4702   -0.1573    4.8800 N   0  0  0  0  0  0  0  0  0  0  0  0
   -0.8286    0.4935    4.7107 C   0  0  0  0  0  0  0  0  0  0  0  0
   -1.0030    1.6701    5.6915 C   0  0  0  0  0  0  0  0  0  0  0  0
   -1.7275    1.2477    6.9651 C   0  0  0  0  0  0  0  0  0  0  0  0
   -3.1303    0.7126    6.6709 C   0  0  0  0  0  0  0  0  0  0  0  0
   -3.2577    0.0600    5.2935 C   0  0  0  0  0  0  0  0  0  0  0  0
   -1.9420   -0.5598    4.8425 C   0  0  0  0  0  0  0  0  0  0  0  0
    3.5966   -2.2172    4.4911 H   0  0  0  0  0  0  0  0  0  0  0  0
    1.8787   -2.2020    4.8272 H   0  0  0  0  0  0  0  0  0  0  0  0
    4.0170   -1.2567    6.8471 H   0  0  0  0  0  0  0  0  0  0  0  0
    3.3376   -2.8956    6.7981 H   0  0  0  0  0  0  0  0  0  0  0  0
    0.5950   -0.6051    5.7796 H   0  0  0  0  0  0  0  0  0  0  0  0
   -0.8545    0.9033    3.6926 H   0  0  0  0  0  0  0  0  0  0  0  0
   -0.0386    2.1231    5.9483 H   0  0  0  0  0  0  0  0  0  0  0  0
   -1.5944    2.4551    5.2022 H   0  0  0  0  0  0  0  0  0  0  0  0
   -1.1412    0.4730    7.4747 H   0  0  0  0  0  0  0  0  0  0  0  0
   -1.7966    2.0924    7.6599 H   0  0  0  0  0  0  0  0  0  0  0  0
   -3.8616    1.5269    6.7424 H   0  0  0  0  0  0  0  0  0  0  0  0
   -3.4010   -0.0094    7.4510 H   0  0  0  0  0  0  0  0  0  0  0  0
   -4.0477   -0.6991    5.3180 H   0  0  0  0  0  0  0  0  0  0  0  0
   -3.5716    0.8132    4.5599 H   0  0  0  0  0  0  0  0  0  0  0  0
   -1.6543   -1.3393    5.5608 H   0  0  0  0  0  0  0  0  0  0  0  0
   -2.0756   -1.0697    3.8807 H   0  0  0  0  0  0  0  0  0  0  0  0
   -3.0000   -2.6000    1.2500 Ti  0  0  0  0  0  0  0  0  0  0  0  0
    0.0000   -2.6000    1.2500 Ti  0  0  0  0  0  0  0  0  0  0  0  0
    3.0000   -2.6000    1.2500 Ti  0  0  0  0  0  0  0  0  0  0  0  0
   -1.5000    0.0000    1.2500 Ti  0  0  0  0  0  0  0  0  0  0  0  0
    1.5000    0.0000    1.2500 Ti  0  0  0  0  0  0  0  0  0  0  0  0
    0.0000    2.6000    1.2500 Ti  0  0  0  0  0  0  0  0  0  0  0  0
   -3.0000   -2.6000   -1.2500 Ti  0  0  0  0  0  0  0  0  0  0  0  0
    0.0000   -2.6000   -1.2500 Ti  0  0  0  0  0  0  0  0  0  0  0  0
    3.0000   -2.6000   -1.2500 Ti  0  0  0  0  0  0  0  0  0  0  0  0
   -1.5000    0.0000   -1.2500 Ti  0  0  0  0  0  0  0  0  0  0  0  0
    1.5000    0.0000   -1.2500 Ti  0  0  0  0  0  0  0  0  0  0  0  0
    0.0000    2.6000   -1.2500 Ti  0  0  0  0  0  0  0  0  0  0  0  0
   -1.5000   -1.3000    0.0000 C   0  0  0  0  0  0  0  0  0  0  0  0
    1.5000   -1.3000    0.0000 C   0  0  0  0  0  0  0  0  0  0  0  0
    0.0000    1.3000    0.0000 C   0  0  0  0  0  0  0  0  0  0  0  0
   -3.0000    0.0000    0.0000 C   0  0  0  0  0  0  0  0  0  0  0  0
    3.0000    0.0000    0.0000 C   0  0  0  0  0  0  0  0  0  0  0  0
   -1.5000    2.6000    0.0000 C   0  0  0  0  0  0  0  0  0  0  0  0
    1.5000    2.6000    0.0000 C   0  0  0  0  0  0  0  0  0  0  0  0
   -3.0000   -2.6000    2.4500 O   0  0  0  0  0  0  0  0  0  0  0  0
    0.0000   -2.6000    2.4500 O   0  0  0  0  0  0  0  0  0  0  0  0
    3.0000   -2.6000    2.4500 O   0  0  0  0  0  0  0  0  0  0  0  0
   -1.5000    0.0000    2.4500 O   0  0  0  0  0  0  0  0  0  0  0  0
    1.5000    0.0000    2.4500 O   0  0  0  0  0  0  0  0  0  0  0  0
   -1.5000    2.6000    2.4500 O   0  0  0  0  0  0  0  0  0  0  0  0
    1.5000    2.6000    2.4500 O   0  0  0  0  0  0  0  0  0  0  0  0
   -3.0000   -2.6000   -2.4500 O   0  0  0  0  0  0  0  0  0  0  0  0
    0.0000   -2.6000   -2.4500 O   0  0  0  0  0  0  0  0  0  0  0  0
    3.0000   -2.6000   -2.4500 O   0  0  0  0  0  0  0  0  0  0  0  0
   -1.5000    0.0000   -2.4500 O   0  0  0  0  0  0  0  0  0  0  0  0
    1.5000    0.0000   -2.4500 O   0  0  0  0  0  0  0  0  0  0  0  0
   -1.5000    2.6000   -2.4500 O   0  0  0  0  0  0  0  0  0  0  0  0
    1.5000    2.6000   -2.4500 O   0  0  0  0  0  0  0  0  0  0  0  0
  1  2  2  0  0  0  0
  2  3  1  0  0  0  0
  3  4  1  0  0  0  0
  4  5  1  0  0  0  0
  5  6  1  0  0  0  0
  3  7  1  0  0  0  0
  7  8  4  0  0  0  0
  7  9  1  0  0  0  0
  9 10  1  0  0  0  0
 10 11  1  0  0  0  0
 11 12  1  0  0  0  0
 12 13  1  0  0  0  0
 13 14  1  0  0  0  0
 10 15  1  0  0  0  0
 14 15  1  0  0  0  0
  4 16  1  0  0  0  0
  4 17  1  0  0  0  0
  5 18  1  0  0  0  0
  5 19  1  0  0  0  0
  9 20  1  0  0  0  0
 10 21  1  0  0  0  0
 11 22  1  0  0  0  0
 11 23  1  0  0  0  0
 12 24  1  0  0  0  0
 12 25  1  0  0  0  0
 13 26  1  0  0  0  0
 13 27  1  0  0  0  0
 14 28  1  0  0  0  0
 14 29  1  0  0  0  0
 15 30  1  0  0  0  0
 15 31  1  0  0  0  0
 32 33  1  0  0  0  0
 33 34  1  0  0  0  0
 32 38  1  0  0  0  0
 33 39  1  0  0  0  0
 38 39  1  0  0  0  0
 34 40  1  0  0  0  0
 39 40  1  0  0  0  0
 35 44  1  0  0  0  0
 41 44  1  0  0  0  0
 36 45  1  0  0  0  0
 42 45  1  0  0  0  0
 37 46  1  0  0  0  0
 43 46  1  0  0  0  0
 35 47  1  0  0  0  0
 41 47  1  0  0  0  0
 44 47  1  0  0  0  0
 36 48  1  0  0  0  0
 42 48  1  0  0  0  0
 45 48  1  0  0  0  0
 37 49  1  0  0  0  0
 43 49  1  0  0  0  0
 46 49  1  0  0  0  0
 37 50  1  0  0  0  0
 43 50  1  0  0  0  0
 46 50  1  0  0  0  0
 32 51  2  0  0  0  0
 33 52  2  0  0  0  0
 34 53  2  0  0  0  0
 35 54  2  0  0  0  0
 36 55  2  0  0  0  0
 37 56  1  0  0  0  0
 49 56  1  0  0  0  0
  8 57  1  0  0  0  0
 37 57  1  0  0  0  0
 38 58  2  0  0  0  0
 39 59  2  0  0  0  0
 40 60  2  0  0  0  0
 41 61  2  0  0  0  0
 42 62  2  0  0  0  0
 43 63  1  0  0  0  0
 49 63  1  0  0  0  0
 43 64  1  0  0  0  0
 50 64  1  0  0  0  0
M  END
