 xtb: 6.7.1pre (5071a88)
          08312621193D

 89101  0     0  0            999 V2000
   -3.0862    0.1460   12.0615 C   0  0  0  0  0  0  0  0  0  0  0  0
   -1.8188    0.4914   11.2955 C   0  0  0  0  0  0  0  0  0  0  0  0
   -1.1681    1.6510   11.5050 C   0  0  0  0  0  0  0  0  0  0  0  0
    0.1319    1.8996   10.8244 C   0  0  0  0  0  0  0  0  0  0  0  0
    0.7673    2.9063   11.1468 O   0  0  0  0  0  0  0  0  0  0  0  0
    0.5707    0.9452    9.9101 N   0  0  0  0  0  0  0  0  0  0  0  0
   -0.0912   -0.2673    9.7103 C   0  0  0  0  0  0  0  0  0  0  0  0
    0.3418   -1.1365    8.9443 O   0  0  0  0  0  0  0  0  0  0  0  0
   -1.2940   -0.4660   10.4210 N   0  0  0  0  0  0  0  0  0  0  0  0
   -2.0016   -1.6804   10.1074 C   0  0  0  0  0  0  0  0  0  0  0  0
   -1.4127   -2.9253   10.3704 C   0  0  0  0  0  0  0  0  0  0  0  0
   -2.0929   -4.1081   10.0636 C   0  0  0  0  0  0  0  0  0  0  0  0
   -3.3612   -4.0511    9.4830 C   0  0  0  0  0  0  0  0  0  0  0  0
   -4.3673   -5.8108    9.0277 I   0  0  0  0  0  0  0  0  0  0  0  0
   -3.9535   -2.8229    9.2004 C   0  0  0  0  0  0  0  0  0  0  0  0
   -3.2692   -1.6502    9.5097 C   0  0  0  0  0  0  0  0  0  0  0  0
   -3.8388   -0.4786    9.1893 F   0  0  0  0  0  0  0  0  0  0  0  0
    1.7657    1.2692    9.1370 C   0  0  0  0  0  0  0  0  0  0  0  0
    1.8401    2.5701    8.5844 C   0  0  0  0  0  0  0  0  0  0  0  0
    2.9604    3.0149    7.8838 C   0  0  0  0  0  0  0  0  0  0  0  0
    4.0432    2.1684    7.7201 C   0  0  0  0  0  0  0  0  0  0  0  0
    4.0006    0.8767    8.2462 C   0  0  0  0  0  0  0  0  0  0  0  0
    2.8763    0.3999    8.9437 C   0  0  0  0  0  0  0  0  0  0  0  0
    2.8670   -0.9206    9.4511 N   0  0  0  0  0  0  0  0  0  0  0  0
    3.8952   -1.8309    9.5067 C   0  0  0  0  0  0  0  0  0  0  0  0
    5.0762   -1.6608    9.2479 O   0  0  0  0  0  0  0  0  0  0  0  0
    3.4386   -3.1820    9.9430 C   0  0  0  0  0  0  0  0  0  0  0  0
    4.1472   -3.8775   11.0827 C   0  0  0  0  0  0  0  0  0  0  0  0
    2.7442   -3.3831   11.2712 C   0  0  0  0  0  0  0  0  0  0  0  0
   -1.6930    2.7017   12.4007 C   0  0  0  0  0  0  0  0  0  0  0  0
   -2.6970    3.5704   11.9590 C   0  0  0  0  0  0  0  0  0  0  0  0
   -3.1936    3.4492   10.7185 F   0  0  0  0  0  0  0  0  0  0  0  0
   -3.2066    4.5640   12.7900 C   0  0  0  0  0  0  0  0  0  0  0  0
   -2.7074    4.7034   14.0841 C   0  0  0  0  0  0  0  0  0  0  0  0
   -1.7005    3.8498   14.5382 C   0  0  0  0  0  0  0  0  0  0  0  0
   -1.1925    2.8523   13.7011 C   0  0  0  0  0  0  0  0  0  0  0  0
   -3.0772   -0.8959   12.3995 H   0  0  0  0  0  0  0  0  0  0  0  0
   -3.9734    0.3181   11.4456 H   0  0  0  0  0  0  0  0  0  0  0  0
   -3.2102    0.7347   12.9754 H   0  0  0  0  0  0  0  0  0  0  0  0
   -0.4253   -2.9840   10.8203 H   0  0  0  0  0  0  0  0  0  0  0  0
   -1.6189   -5.0634   10.2780 H   0  0  0  0  0  0  0  0  0  0  0  0
   -4.9311   -2.7536    8.7338 H   0  0  0  0  0  0  0  0  0  0  0  0
    1.0100    3.2666    8.6920 H   0  0  0  0  0  0  0  0  0  0  0  0
    2.9850    4.0224    7.4772 H   0  0  0  0  0  0  0  0  0  0  0  0
    4.9258    2.5037    7.1812 H   0  0  0  0  0  0  0  0  0  0  0  0
    4.8704    0.2492    8.0747 H   0  0  0  0  0  0  0  0  0  0  0  0
    1.9504   -1.2951    9.6621 H   0  0  0  0  0  0  0  0  0  0  0  0
    3.1350   -3.8168    9.1162 H   0  0  0  0  0  0  0  0  0  0  0  0
    4.3115   -4.9451   10.9951 H   0  0  0  0  0  0  0  0  0  0  0  0
    4.9520   -3.3465   11.5804 H   0  0  0  0  0  0  0  0  0  0  0  0
    1.9535   -4.1222   11.3224 H   0  0  0  0  0  0  0  0  0  0  0  0
    2.6032   -2.5292   11.9241 H   0  0  0  0  0  0  0  0  0  0  0  0
   -3.9851    5.2247   12.4217 H   0  0  0  0  0  0  0  0  0  0  0  0
   -3.0962    5.4816   14.7365 H   0  0  0  0  0  0  0  0  0  0  0  0
   -1.3028    3.9673   15.5439 H   0  0  0  0  0  0  0  0  0  0  0  0
   -0.3970    2.2061   14.0660 H   0  0  0  0  0  0  0  0  0  0  0  0
   -2.1419   -3.0088    2.1197 Ti  0  0  0  0  0  0  0  0  0  0  0  0
    0.2890   -1.6948    1.4324 Ti  0  0  0  0  0  0  0  0  0  0  0  0
    1.9031   -3.0677   -0.7293 Ti  0  0  0  0  0  0  0  0  0  0  0  0
   -2.5215   -0.2519    1.3037 Ti  0  0  0  0  0  0  0  0  0  0  0  0
    2.1420    0.4995    2.2044 Ti  0  0  0  0  0  0  0  0  0  0  0  0
   -0.6814    0.1896    3.6812 Ti  0  0  0  0  0  0  0  0  0  0  0  0
   -2.0368   -3.0777   -1.2005 Ti  0  0  0  0  0  0  0  0  0  0  0  0
   -0.6053   -0.7709   -2.0351 Ti  0  0  0  0  0  0  0  0  0  0  0  0
    1.9455   -1.5873   -3.4124 Ti  0  0  0  0  0  0  0  0  0  0  0  0
   -1.8782    1.7466   -1.2400 Ti  0  0  0  0  0  0  0  0  0  0  0  0
    2.4125    0.4542   -0.7742 Ti  0  0  0  0  0  0  0  0  0  0  0  0
    0.8177    1.8385   -2.9400 Ti  0  0  0  0  0  0  0  0  0  0  0  0
   -3.6784    1.2814    0.6007 C   0  0  0  0  0  0  0  0  0  0  0  0
    4.1282    0.4828    0.3873 C   0  0  0  0  0  0  0  0  0  0  0  0
    0.4555    2.2672    0.3497 C   0  0  0  0  0  0  0  0  0  0  0  0
   -3.6667    2.1188   -0.3139 C   0  0  0  0  0  0  0  0  0  0  0  0
    4.1160    0.6322    1.6214 C   0  0  0  0  0  0  0  0  0  0  0  0
   -0.6352    2.7410   -0.1189 C   0  0  0  0  0  0  0  0  0  0  0  0
    1.6301    1.7810    0.7342 C   0  0  0  0  0  0  0  0  0  0  0  0
   -3.0935   -1.9569    1.0379 O   0  0  0  0  0  0  0  0  0  0  0  0
   -0.4872   -2.6058    2.7012 O   0  0  0  0  0  0  0  0  0  0  0  0
    0.3141   -2.8889    0.1450 O   0  0  0  0  0  0  0  0  0  0  0  0
   -0.8008   -0.4359    0.9712 O   0  0  0  0  0  0  0  0  0  0  0  0
    1.9029   -1.1583    1.4694 O   0  0  0  0  0  0  0  0  0  0  0  0
   -2.3227   -0.1139    3.0248 O   0  0  0  0  0  0  0  0  0  0  0  0
    1.0138    0.4416    3.5688 O   0  0  0  0  0  0  0  0  0  0  0  0
   -1.7720   -4.5879   -1.6528 O   0  0  0  0  0  0  0  0  0  0  0  0
    0.1906   -1.1892   -3.5340 O   0  0  0  0  0  0  0  0  0  0  0  0
    2.8314   -2.1702   -1.9180 O   0  0  0  0  0  0  0  0  0  0  0  0
   -2.0546   -0.2244   -1.3375 O   0  0  0  0  0  0  0  0  0  0  0  0
    0.7685   -0.3906   -1.0637 O   0  0  0  0  0  0  0  0  0  0  0  0
   -0.9000    1.6493   -2.8186 O   0  0  0  0  0  0  0  0  0  0  0  0
    2.4153    1.3575   -2.2641 O   0  0  0  0  0  0  0  0  0  0  0  0
  1  2  1  0  0  0  0
  2  3  2  0  0  0  0
  3  4  1  0  0  0  0
  4  5  2  0  0  0  0
  4  6  1  0  0  0  0
  6  7  1  0  0  0  0
  7  8  2  0  0  0  0
  2  9  1  0  0  0  0
  7  9  1  0  0  0  0
  9 10  1  0  0  0  0
 10 11  4  0  0  0  0
 11 12  4  0  0  0  0
 12 13  4  0  0  0  0
 13 14  1  0  0  0  0
 13 15  4  0  0  0  0
 10 16  4  0  0  0  0
 15 16  4  0  0  0  0
 16 17  1  0  0  0  0
  6 18  1  0  0  0  0
 18 19  4  0  0  0  0
 19 20  4  0  0  0  0
 20 21  4  0  0  0  0
 21 22  4  0  0  0  0
 18 23  4  0  0  0  0
 22 23  4  0  0  0  0
 23 24  1  0  0  0  0
 24 25  1  0  0  0  0
 25 26  2  0  0  0  0
 25 27  1  0  0  0  0
 27 28  1  0  0  0  0
 27 29  1  0  0  0  0
 28 29  1  0  0  0  0
  3 30  1  0  0  0  0
 30 31  4  0  0  0  0
 31 32  1  0  0  0  0
 31 33  4  0  0  0  0
 33 34  4  0  0  0  0
 34 35  4  0  0  0  0
 30 36  4  0  0  0  0
 35 36  4  0  0  0  0
  1 37  1  0  0  0  0
  1 38  1  0  0  0  0
  1 39  1  0  0  0  0
 11 40  1  0  0  0  0
 12 41  1  0  0  0  0
 15 42  1  0  0  0  0
 19 43  1  0  0  0  0
 20 44  1  0  0  0  0
 21 45  1  0  0  0  0
 22 46  1  0  0  0  0
 24 47  1  0  0  0  0
 27 48  1  0  0  0  0
 28 49  1  0  0  0  0
 28 50  1  0  0  0  0
 29 51  1  0  0  0  0
 29 52  1  0  0  0  0
 33 53  1  0  0  0  0
 34 54  1  0  0  0  0
 35 55  1  0  0  0  0
 36 56  1  0  0  0  0
 57 63  1  0  0  0  0
 63 64  1  0  0  0  0
 59 65  1  0  0  0  0
 60 69  1  0  0  0  0
 67 70  1  0  0  0  0
 66 72  1  0  0  0  0
 69 72  3  0  0  0  0
 61 73  1  0  0  0  0
 70 73  3  0  0  0  0
 66 74  1  0  0  0  0
 71 74  2  0  0  0  0
 61 75  1  0  0  0  0
 67 75  1  0  0  0  0
 71 75  2  0  0  0  0
 57 76  1  0  0  0  0
 60 76  1  0  0  0  0
 57 77  1  0  0  0  0
 58 77  1  0  0  0  0
 58 78  1  0  0  0  0
 59 78  1  0  0  0  0
 58 79  1  0  0  0  0
 60 79  1  0  0  0  0
 58 80  1  0  0  0  0
 61 80  1  0  0  0  0
 60 81  1  0  0  0  0
 62 81  1  0  0  0  0
 61 82  1  0  0  0  0
 62 82  1  0  0  0  0
 63 83  2  0  0  0  0
 64 84  1  0  0  0  0
 65 84  1  0  0  0  0
 59 85  1  0  0  0  0
 65 85  1  0  0  0  0
 64 86  1  0  0  0  0
 66 86  1  0  0  0  0
 64 87  1  0  0  0  0
 67 87  1  0  0  0  0
 66 88  1  0  0  0  0
 68 88  1  0  0  0  0
 67 89  1  0  0  0  0
 68 89  1  0  0  0  0
M  END
