 xtb: 6.7.1pre (5071a88)
          08312620413D

 89104  0     0  0            999 V2000
   -3.0862    0.1460    6.9646 C   0  0  0  0  0  0  0  0  0  0  0  0
   -1.8188    0.4914    6.1986 C   0  0  0  0  0  0  0  0  0  0  0  0
   -1.1681    1.6510    6.4081 C   0  0  0  0  0  0  0  0  0  0  0  0
    0.1319    1.8996    5.7275 C   0  0  0  0  0  0  0  0  0  0  0  0
    0.7673    2.9063    6.0499 O   0  0  0  0  0  0  0  0  0  0  0  0
    0.5707    0.9452    4.8132 N   0  0  0  0  0  0  0  0  0  0  0  0
   -0.0912   -0.2673    4.6134 C   0  0  0  0  0  0  0  0  0  0  0  0
    0.3418   -1.1365    3.8474 O   0  0  0  0  0  0  0  0  0  0  0  0
   -1.2940   -0.4660    5.3241 N   0  0  0  0  0  0  0  0  0  0  0  0
   -2.0016   -1.6804    5.0105 C   0  0  0  0  0  0  0  0  0  0  0  0
   -1.4127   -2.9253    5.2735 C   0  0  0  0  0  0  0  0  0  0  0  0
   -2.0929   -4.1081    4.9667 C   0  0  0  0  0  0  0  0  0  0  0  0
   -3.3612   -4.0511    4.3861 C   0  0  0  0  0  0  0  0  0  0  0  0
   -4.3673   -5.8108    3.9308 I   0  0  0  0  0  0  0  0  0  0  0  0
   -3.9535   -2.8229    4.1035 C   0  0  0  0  0  0  0  0  0  0  0  0
   -3.2692   -1.6502    4.4128 C   0  0  0  0  0  0  0  0  0  0  0  0
   -3.8388   -0.4786    4.0924 F   0  0  0  0  0  0  0  0  0  0  0  0
    1.7657    1.2692    4.0401 C   0  0  0  0  0  0  0  0  0  0  0  0
    1.8401    2.5701    3.4875 C   0  0  0  0  0  0  0  0  0  0  0  0
    2.9604    3.0149    2.7869 C   0  0  0  0  0  0  0  0  0  0  0  0
    4.0432    2.1684    2.6232 C   0  0  0  0  0  0  0  0  0  0  0  0
    4.0006    0.8767    3.1493 C   0  0  0  0  0  0  0  0  0  0  0  0
    2.8763    0.3999    3.8468 C   0  0  0  0  0  0  0  0  0  0  0  0
    2.8670   -0.9206    4.3542 N   0  0  0  0  0  0  0  0  0  0  0  0
    3.8952   -1.8309    4.4098 C   0  0  0  0  0  0  0  0  0  0  0  0
    5.0762   -1.6608    4.1510 O   0  0  0  0  0  0  0  0  0  0  0  0
    3.4386   -3.1820    4.8461 C   0  0  0  0  0  0  0  0  0  0  0  0
    4.1472   -3.8775    5.9858 C   0  0  0  0  0  0  0  0  0  0  0  0
    2.7442   -3.3831    6.1743 C   0  0  0  0  0  0  0  0  0  0  0  0
   -1.6930    2.7017    7.3038 C   0  0  0  0  0  0  0  0  0  0  0  0
   -2.6970    3.5704    6.8621 C   0  0  0  0  0  0  0  0  0  0  0  0
   -3.1936    3.4492    5.6216 F   0  0  0  0  0  0  0  0  0  0  0  0
   -3.2066    4.5640    7.6931 C   0  0  0  0  0  0  0  0  0  0  0  0
   -2.7074    4.7034    8.9872 C   0  0  0  0  0  0  0  0  0  0  0  0
   -1.7005    3.8498    9.4413 C   0  0  0  0  0  0  0  0  0  0  0  0
   -1.1925    2.8523    8.6042 C   0  0  0  0  0  0  0  0  0  0  0  0
   -3.0772   -0.8959    7.3026 H   0  0  0  0  0  0  0  0  0  0  0  0
   -3.9734    0.3181    6.3487 H   0  0  0  0  0  0  0  0  0  0  0  0
   -3.2102    0.7347    7.8785 H   0  0  0  0  0  0  0  0  0  0  0  0
   -0.4253   -2.9840    5.7234 H   0  0  0  0  0  0  0  0  0  0  0  0
   -1.6189   -5.0634    5.1811 H   0  0  0  0  0  0  0  0  0  0  0  0
   -4.9311   -2.7536    3.6369 H   0  0  0  0  0  0  0  0  0  0  0  0
    1.0100    3.2666    3.5951 H   0  0  0  0  0  0  0  0  0  0  0  0
    2.9850    4.0224    2.3803 H   0  0  0  0  0  0  0  0  0  0  0  0
    4.9258    2.5037    2.0843 H   0  0  0  0  0  0  0  0  0  0  0  0
    4.8704    0.2492    2.9778 H   0  0  0  0  0  0  0  0  0  0  0  0
    1.9504   -1.2951    4.5652 H   0  0  0  0  0  0  0  0  0  0  0  0
    3.1350   -3.8168    4.0193 H   0  0  0  0  0  0  0  0  0  0  0  0
    4.3115   -4.9451    5.8982 H   0  0  0  0  0  0  0  0  0  0  0  0
    4.9520   -3.3465    6.4835 H   0  0  0  0  0  0  0  0  0  0  0  0
    1.9535   -4.1222    6.2255 H   0  0  0  0  0  0  0  0  0  0  0  0
    2.6032   -2.5292    6.8272 H   0  0  0  0  0  0  0  0  0  0  0  0
   -3.9851    5.2247    7.3248 H   0  0  0  0  0  0  0  0  0  0  0  0
   -3.0962    5.4816    9.6396 H   0  0  0  0  0  0  0  0  0  0  0  0
   -1.3028    3.9673   10.4470 H   0  0  0  0  0  0  0  0  0  0  0  0
   -0.3970    2.2061    8.9691 H   0  0  0  0  0  0  0  0  0  0  0  0
   -3.0000   -2.6000    1.2500 Ti  0  0  0  0  0  0  0  0  0  0  0  0
    0.0000   -2.6000    1.2500 Ti  0  0  0  0  0  0  0  0  0  0  0  0
    3.0000   -2.6000    1.2500 Ti  0  0  0  0  0  0  0  0  0  0  0  0
   -1.5000    0.0000    1.2500 Ti  0  0  0  0  0  0  0  0  0  0  0  0
    1.5000    0.0000    1.2500 Ti  0  0  0  0  0  0  0  0  0  0  0  0
    0.0000    2.6000    1.2500 Ti  0  0  0  0  0  0  0  0  0  0  0  0
   -3.0000   -2.6000   -1.2500 Ti  0  0  0  0  0  0  0  0  0  0  0  0
    0.0000   -2.6000   -1.2500 Ti  0  0  0  0  0  0  0  0  0  0  0  0
    3.0000   -2.6000   -1.2500 Ti  0  0  0  0  0  0  0  0  0  0  0  0
   -1.5000    0.0000   -1.2500 Ti  0  0  0  0  0  0  0  0  0  0  0  0
    1.5000    0.0000   -1.2500 Ti  0  0  0  0  0  0  0  0  0  0  0  0
    0.0000    2.6000   -1.2500 Ti  0  0  0  0  0  0  0  0  0  0  0  0
   -1.5000   -1.3000    0.0000 C   0  0  0  0  0  0  0  0  0  0  0  0
    1.5000   -1.3000    0.0000 C   0  0  0  0  0  0  0  0  0  0  0  0
    0.0000    1.3000    0.0000 C   0  0  0  0  0  0  0  0  0  0  0  0
   -3.0000    0.0000    0.0000 C   0  0  0  0  0  0  0  0  0  0  0  0
    3.0000    0.0000    0.0000 C   0  0  0  0  0  0  0  0  0  0  0  0
   -1.5000    2.6000    0.0000 C   0  0  0  0  0  0  0  0  0  0  0  0
    1.5000    2.6000    0.0000 C   0  0  0  0  0  0  0  0  0  0  0  0
   -3.0000   -2.6000    2.4500 O   0  0  0  0  0  0  0  0  0  0  0  0
    0.0000   -2.6000    2.4500 O   0  0  0  0  0  0  0  0  0  0  0  0
    3.0000   -2.6000    2.4500 O   0  0  0  0  0  0  0  0  0  0  0  0
   -1.5000    0.0000    2.4500 O   0  0  0  0  0  0  0  0  0  0  0  0
    1.5000    0.0000    2.4500 O   0  0  0  0  0  0  0  0  0  0  0  0
   -1.5000    2.6000    2.4500 O   0  0  0  0  0  0  0  0  0  0  0  0
    1.5000    2.6000    2.4500 O   0  0  0  0  0  0  0  0  0  0  0  0
   -3.0000   -2.6000   -2.4500 O   0  0  0  0  0  0  0  0  0  0  0  0
    0.0000   -2.6000   -2.4500 O   0  0  0  0  0  0  0  0  0  0  0  0
    3.0000   -2.6000   -2.4500 O   0  0  0  0  0  0  0  0  0  0  0  0
   -1.5000    0.0000   -2.4500 O   0  0  0  0  0  0  0  0  0  0  0  0
    1.5000    0.0000   -2.4500 O   0  0  0  0  0  0  0  0  0  0  0  0
   -1.5000    2.6000   -2.4500 O   0  0  0  0  0  0  0  0  0  0  0  0
    1.5000    2.6000   -2.4500 O   0  0  0  0  0  0  0  0  0  0  0  0
  1  2  1  0  0  0  0
  2  3  2  0  0  0  0
  3  4  1  0  0  0  0
  4  5  2  0  0  0  0
  4  6  1  0  0  0  0
  6  7  1  0  0  0  0
  7  8  2  0  0  0  0
  2  9  1  0  0  0  0
  7  9  1  0  0  0  0
  9 10  1  0  0  0  0
 10 11  4  0  0  0  0
 11 12  4  0  0  0  0
 12 13  4  0  0  0  0
 13 14  1  0  0  0  0
 13 15  4  0  0  0  0
 10 16  4  0  0  0  0
 15 16  4  0  0  0  0
 16 17  1  0  0  0  0
  6 18  1  0  0  0  0
 18 19  1  0  0  0  0
 19 20  1  0  0  0  0
 20 21  4  0  0  0  0
 21 22  2  0  0  0  0
 18 23  4  0  0  0  0
 22 23  1  0  0  0  0
 23 24  1  0  0  0  0
 24 25  1  0  0  0  0
 25 26  2  0  0  0  0
 25 27  1  0  0  0  0
 27 28  1  0  0  0  0
 27 29  1  0  0  0  0
 28 29  1  0  0  0  0
  3 30  1  0  0  0  0
 30 31  4  0  0  0  0
 31 32  1  0  0  0  0
 31 33  4  0  0  0  0
 33 34  4  0  0  0  0
 34 35  4  0  0  0  0
 30 36  4  0  0  0  0
 35 36  4  0  0  0  0
  1 37  1  0  0  0  0
  1 38  1  0  0  0  0
  1 39  1  0  0  0  0
 11 40  1  0  0  0  0
 12 41  1  0  0  0  0
 15 42  1  0  0  0  0
 19 43  1  0  0  0  0
 20 44  1  0  0  0  0
 21 45  1  0  0  0  0
 22 46  1  0  0  0  0
 24 47  1  0  0  0  0
 27 48  1  0  0  0  0
 28 49  1  0  0  0  0
 28 50  1  0  0  0  0
 29 51  1  0  0  0  0
 29 52  1  0  0  0  0
 33 53  1  0  0  0  0
 34 54  1  0  0  0  0
 35 55  1  0  0  0  0
 36 56  1  0  0  0  0
 57 58  1  0  0  0  0
 58 59  1  0  0  0  0
 57 63  1  0  0  0  0
 58 64  1  0  0  0  0
 63 64  1  0  0  0  0
 59 65  1  0  0  0  0
 64 65  1  0  0  0  0
 62 68  1  0  0  0  0
 60 69  1  0  0  0  0
 66 69  1  0  0  0  0
 61 70  1  0  0  0  0
 67 70  1  0  0  0  0
 62 71  1  0  0  0  0
 68 71  1  0  0  0  0
 60 72  1  0  0  0  0
 66 72  1  0  0  0  0
 69 72  1  0  0  0  0
 61 73  1  0  0  0  0
 67 73  1  0  0  0  0
 70 73  1  0  0  0  0
 62 74  1  0  0  0  0
 68 74  1  0  0  0  0
 71 74  1  0  0  0  0
 62 75  1  0  0  0  0
 68 75  1  0  0  0  0
 71 75  1  0  0  0  0
 57 76  2  0  0  0  0
 58 77  2  0  0  0  0
 59 78  2  0  0  0  0
 60 79  2  0  0  0  0
 61 80  2  0  0  0  0
 62 81  1  0  0  0  0
 19 82  1  0  0  0  0
 20 82  1  0  0  0  0
 62 82  1  0  0  0  0
 63 83  2  0  0  0  0
 64 84  2  0  0  0  0
 65 85  2  0  0  0  0
 66 86  2  0  0  0  0
 67 87  2  0  0  0  0
 68 88  1  0  0  0  0
 74 88  1  0  0  0  0
 68 89  1  0  0  0  0
 75 89  1  0  0  0  0
M  END
