 xtb: 6.7.1pre (5071a88)
          08312621573D

 89101  0     0  0            999 V2000
   -3.3087   -0.9525   12.2898 C   0  0  0  0  0  0  0  0  0  0  0  0
   -2.0138   -0.5494   11.6034 C   0  0  0  0  0  0  0  0  0  0  0  0
   -1.5858   -1.1654   10.4857 C   0  0  0  0  0  0  0  0  0  0  0  0
   -0.2518   -0.8253    9.9137 C   0  0  0  0  0  0  0  0  0  0  0  0
    0.1042   -1.4275    8.8983 O   0  0  0  0  0  0  0  0  0  0  0  0
    0.5046    0.1337   10.5831 N   0  0  0  0  0  0  0  0  0  0  0  0
    0.0329    0.8199   11.7026 C   0  0  0  0  0  0  0  0  0  0  0  0
    0.6628    1.7535   12.2145 O   0  0  0  0  0  0  0  0  0  0  0  0
   -1.2260    0.4334   12.2090 N   0  0  0  0  0  0  0  0  0  0  0  0
   -1.6430    1.1245   13.3986 C   0  0  0  0  0  0  0  0  0  0  0  0
   -2.8037    1.9080   13.4061 C   0  0  0  0  0  0  0  0  0  0  0  0
   -3.1827    2.5895   14.5674 C   0  0  0  0  0  0  0  0  0  0  0  0
   -2.4020    2.4903   15.7217 C   0  0  0  0  0  0  0  0  0  0  0  0
   -2.9731    3.5049   17.4427 I   0  0  0  0  0  0  0  0  0  0  0  0
   -1.2438    1.7169   15.7282 C   0  0  0  0  0  0  0  0  0  0  0  0
   -0.8723    1.0442   14.5683 C   0  0  0  0  0  0  0  0  0  0  0  0
    0.2218    0.2667   14.5982 F   0  0  0  0  0  0  0  0  0  0  0  0
    1.7917    0.5079   10.0089 C   0  0  0  0  0  0  0  0  0  0  0  0
    1.8582    0.7021    8.6096 C   0  0  0  0  0  0  0  0  0  0  0  0
    3.0559    0.9963    7.9591 C   0  0  0  0  0  0  0  0  0  0  0  0
    4.2239    1.1026    8.6941 C   0  0  0  0  0  0  0  0  0  0  0  0
    4.1916    0.9263   10.0779 C   0  0  0  0  0  0  0  0  0  0  0  0
    2.9948    0.6404   10.7594 C   0  0  0  0  0  0  0  0  0  0  0  0
    3.0036    0.4870   12.1683 N   0  0  0  0  0  0  0  0  0  0  0  0
    4.0896    0.3974   13.0084 C   0  0  0  0  0  0  0  0  0  0  0  0
    5.2647    0.2452   12.7115 O   0  0  0  0  0  0  0  0  0  0  0  0
    3.7114    0.4541   14.4491 C   0  0  0  0  0  0  0  0  0  0  0  0
    3.0044    1.6623   15.0198 C   0  0  0  0  0  0  0  0  0  0  0  0
    4.4390    1.4077   15.3706 C   0  0  0  0  0  0  0  0  0  0  0  0
   -2.3733   -2.2169    9.8122 C   0  0  0  0  0  0  0  0  0  0  0  0
   -2.1219   -3.5671   10.0793 C   0  0  0  0  0  0  0  0  0  0  0  0
   -1.1797   -3.9124   10.9699 F   0  0  0  0  0  0  0  0  0  0  0  0
   -2.8529   -4.5718    9.4522 C   0  0  0  0  0  0  0  0  0  0  0  0
   -3.8512   -4.2311    8.5404 C   0  0  0  0  0  0  0  0  0  0  0  0
   -4.1127   -2.8883    8.2615 C   0  0  0  0  0  0  0  0  0  0  0  0
   -3.3771   -1.8816    8.8935 C   0  0  0  0  0  0  0  0  0  0  0  0
   -3.1647   -1.0711   13.3692 H   0  0  0  0  0  0  0  0  0  0  0  0
   -3.7032   -1.9137   11.9488 H   0  0  0  0  0  0  0  0  0  0  0  0
   -4.0898   -0.2081   12.1082 H   0  0  0  0  0  0  0  0  0  0  0  0
   -3.4012    2.0238   12.5056 H   0  0  0  0  0  0  0  0  0  0  0  0
   -4.0819    3.2018   14.5535 H   0  0  0  0  0  0  0  0  0  0  0  0
   -0.6241    1.6217   16.6140 H   0  0  0  0  0  0  0  0  0  0  0  0
    0.9630    0.6321    7.9946 H   0  0  0  0  0  0  0  0  0  0  0  0
    3.0720    1.1335    6.8812 H   0  0  0  0  0  0  0  0  0  0  0  0
    5.1658    1.3265    8.2000 H   0  0  0  0  0  0  0  0  0  0  0  0
    5.1327    1.0408   10.6082 H   0  0  0  0  0  0  0  0  0  0  0  0
    2.1091    0.5864   12.6318 H   0  0  0  0  0  0  0  0  0  0  0  0
    3.4657   -0.5160   14.8688 H   0  0  0  0  0  0  0  0  0  0  0  0
    2.7836    2.4942   14.3593 H   0  0  0  0  0  0  0  0  0  0  0  0
    2.2575    1.4959   15.7866 H   0  0  0  0  0  0  0  0  0  0  0  0
    5.1948    2.0557   14.9396 H   0  0  0  0  0  0  0  0  0  0  0  0
    4.6712    1.0617   16.3707 H   0  0  0  0  0  0  0  0  0  0  0  0
   -2.6369   -5.6117    9.6763 H   0  0  0  0  0  0  0  0  0  0  0  0
   -4.4214   -5.0117    8.0424 H   0  0  0  0  0  0  0  0  0  0  0  0
   -4.8862   -2.6256    7.5430 H   0  0  0  0  0  0  0  0  0  0  0  0
   -3.5856   -0.8413    8.6549 H   0  0  0  0  0  0  0  0  0  0  0  0
   -2.1419   -3.0088    2.1197 Ti  0  0  0  0  0  0  0  0  0  0  0  0
    0.2890   -1.6948    1.4324 Ti  0  0  0  0  0  0  0  0  0  0  0  0
    1.9031   -3.0677   -0.7293 Ti  0  0  0  0  0  0  0  0  0  0  0  0
   -2.5215   -0.2519    1.3037 Ti  0  0  0  0  0  0  0  0  0  0  0  0
    2.1420    0.4995    2.2044 Ti  0  0  0  0  0  0  0  0  0  0  0  0
   -0.6814    0.1896    3.6812 Ti  0  0  0  0  0  0  0  0  0  0  0  0
   -2.0368   -3.0777   -1.2005 Ti  0  0  0  0  0  0  0  0  0  0  0  0
   -0.6053   -0.7709   -2.0351 Ti  0  0  0  0  0  0  0  0  0  0  0  0
    1.9455   -1.5873   -3.4124 Ti  0  0  0  0  0  0  0  0  0  0  0  0
   -1.8782    1.7466   -1.2400 Ti  0  0  0  0  0  0  0  0  0  0  0  0
    2.4125    0.4542   -0.7742 Ti  0  0  0  0  0  0  0  0  0  0  0  0
    0.8177    1.8385   -2.9400 Ti  0  0  0  0  0  0  0  0  0  0  0  0
   -3.6784    1.2814    0.6007 C   0  0  0  0  0  0  0  0  0  0  0  0
    4.1282    0.4828    0.3873 C   0  0  0  0  0  0  0  0  0  0  0  0
    0.4555    2.2672    0.3497 C   0  0  0  0  0  0  0  0  0  0  0  0
   -3.6667    2.1188   -0.3139 C   0  0  0  0  0  0  0  0  0  0  0  0
    4.1160    0.6322    1.6214 C   0  0  0  0  0  0  0  0  0  0  0  0
   -0.6352    2.7410   -0.1189 C   0  0  0  0  0  0  0  0  0  0  0  0
    1.6301    1.7810    0.7342 C   0  0  0  0  0  0  0  0  0  0  0  0
   -3.0935   -1.9569    1.0379 O   0  0  0  0  0  0  0  0  0  0  0  0
   -0.4872   -2.6058    2.7012 O   0  0  0  0  0  0  0  0  0  0  0  0
    0.3141   -2.8889    0.1450 O   0  0  0  0  0  0  0  0  0  0  0  0
   -0.8008   -0.4359    0.9712 O   0  0  0  0  0  0  0  0  0  0  0  0
    1.9029   -1.1583    1.4694 O   0  0  0  0  0  0  0  0  0  0  0  0
   -2.3227   -0.1139    3.0248 O   0  0  0  0  0  0  0  0  0  0  0  0
    1.0138    0.4416    3.5688 O   0  0  0  0  0  0  0  0  0  0  0  0
   -1.7720   -4.5879   -1.6528 O   0  0  0  0  0  0  0  0  0  0  0  0
    0.1906   -1.1892   -3.5340 O   0  0  0  0  0  0  0  0  0  0  0  0
    2.8314   -2.1702   -1.9180 O   0  0  0  0  0  0  0  0  0  0  0  0
   -2.0546   -0.2244   -1.3375 O   0  0  0  0  0  0  0  0  0  0  0  0
    0.7685   -0.3906   -1.0637 O   0  0  0  0  0  0  0  0  0  0  0  0
   -0.9000    1.6493   -2.8186 O   0  0  0  0  0  0  0  0  0  0  0  0
    2.4153    1.3575   -2.2641 O   0  0  0  0  0  0  0  0  0  0  0  0
  1  2  1  0  0  0  0
  2  3  2  0  0  0  0
  3  4  1  0  0  0  0
  4  5  2  0  0  0  0
  4  6  1  0  0  0  0
  6  7  1  0  0  0  0
  7  8  2  0  0  0  0
  2  9  1  0  0  0  0
  7  9  1  0  0  0  0
  9 10  1  0  0  0  0
 10 11  4  0  0  0  0
 11 12  4  0  0  0  0
 12 13  4  0  0  0  0
 13 14  1  0  0  0  0
 13 15  4  0  0  0  0
 10 16  4  0  0  0  0
 15 16  4  0  0  0  0
 16 17  1  0  0  0  0
  6 18  1  0  0  0  0
 18 19  4  0  0  0  0
 19 20  4  0  0  0  0
 20 21  4  0  0  0  0
 21 22  4  0  0  0  0
 18 23  4  0  0  0  0
 22 23  4  0  0  0  0
 23 24  1  0  0  0  0
 24 25  1  0  0  0  0
 25 26  2  0  0  0  0
 25 27  1  0  0  0  0
 27 28  1  0  0  0  0
 27 29  1  0  0  0  0
 28 29  1  0  0  0  0
  3 30  1  0  0  0  0
 30 31  4  0  0  0  0
 31 32  1  0  0  0  0
 31 33  4  0  0  0  0
 33 34  4  0  0  0  0
 34 35  4  0  0  0  0
 30 36  4  0  0  0  0
 35 36  4  0  0  0  0
  1 37  1  0  0  0  0
  1 38  1  0  0  0  0
  1 39  1  0  0  0  0
 11 40  1  0  0  0  0
 12 41  1  0  0  0  0
 15 42  1  0  0  0  0
 19 43  1  0  0  0  0
 20 44  1  0  0  0  0
 21 45  1  0  0  0  0
 22 46  1  0  0  0  0
 24 47  1  0  0  0  0
 27 48  1  0  0  0  0
 28 49  1  0  0  0  0
 28 50  1  0  0  0  0
 29 51  1  0  0  0  0
 29 52  1  0  0  0  0
 33 53  1  0  0  0  0
 34 54  1  0  0  0  0
 35 55  1  0  0  0  0
 36 56  1  0  0  0  0
 57 63  1  0  0  0  0
 63 64  1  0  0  0  0
 59 65  1  0  0  0  0
 60 69  1  0  0  0  0
 67 70  1  0  0  0  0
 66 72  1  0  0  0  0
 69 72  3  0  0  0  0
 61 73  1  0  0  0  0
 70 73  3  0  0  0  0
 66 74  1  0  0  0  0
 71 74  2  0  0  0  0
 61 75  1  0  0  0  0
 67 75  1  0  0  0  0
 71 75  2  0  0  0  0
 57 76  1  0  0  0  0
 60 76  1  0  0  0  0
 57 77  1  0  0  0  0
 58 77  1  0  0  0  0
 58 78  1  0  0  0  0
 59 78  1  0  0  0  0
 58 79  1  0  0  0  0
 60 79  1  0  0  0  0
 58 80  1  0  0  0  0
 61 80  1  0  0  0  0
 60 81  1  0  0  0  0
 62 81  1  0  0  0  0
 61 82  1  0  0  0  0
 62 82  1  0  0  0  0
 63 83  2  0  0  0  0
 64 84  1  0  0  0  0
 65 84  1  0  0  0  0
 59 85  1  0  0  0  0
 65 85  1  0  0  0  0
 64 86  1  0  0  0  0
 66 86  1  0  0  0  0
 64 87  1  0  0  0  0
 67 87  1  0  0  0  0
 66 88  1  0  0  0  0
 68 88  1  0  0  0  0
 67 89  1  0  0  0  0
 68 89  1  0  0  0  0
M  END
