 xtb: 6.7.1pre (5071a88)
          09022620123D

 33 40  0     0  0            999 V2000
   -0.5607   -4.2366    3.6721 Ti  0  0  0  0  0  0  0  0  0  0  0  0
    1.0012   -2.1644    2.2144 Ti  0  0  0  0  0  0  0  0  0  0  0  0
    2.7448   -2.0241   -0.0936 Ti  0  0  0  0  0  0  0  0  0  0  0  0
   -2.3585   -2.3266    2.3865 Ti  0  0  0  0  0  0  0  0  0  0  0  0
    1.2054    0.6644    3.1959 Ti  0  0  0  0  0  0  0  0  0  0  0  0
   -0.6937   -0.9549    4.6128 Ti  0  0  0  0  0  0  0  0  0  0  0  0
   -0.4564   -4.5362    0.1288 Ti  0  0  0  0  0  0  0  0  0  0  0  0
   -0.5660   -1.4118   -0.8807 Ti  0  0  0  0  0  0  0  0  0  0  0  0
    1.2755   -0.8416   -3.1728 Ti  0  0  0  0  0  0  0  0  0  0  0  0
   -3.0130   -0.2434   -0.0022 Ti  0  0  0  0  0  0  0  0  0  0  0  0
    1.4328    0.7636   -0.3085 Ti  0  0  0  0  0  0  0  0  0  0  0  0
   -1.1087    1.5419   -1.7635 Ti  0  0  0  0  0  0  0  0  0  0  0  0
   -4.2119   -1.8537    1.6625 C   0  0  0  0  0  0  0  0  0  0  0  0
    2.0440    2.1342    1.0971 C   0  0  0  0  0  0  0  0  0  0  0  0
   -1.6585    0.8737    2.4978 C   0  0  0  0  0  0  0  0  0  0  0  0
   -4.6918   -1.0778    0.8216 C   0  0  0  0  0  0  0  0  0  0  0  0
    2.0244    2.3068    2.3231 C   0  0  0  0  0  0  0  0  0  0  0  0
   -2.5393    0.8614    1.5918 C   0  0  0  0  0  0  0  0  0  0  0  0
   -0.7747    1.0542    3.4993 C   0  0  0  0  0  0  0  0  0  0  0  0
   -2.1216   -4.0594    2.7323 O   0  0  0  0  0  0  0  0  0  0  0  0
    0.8893   -3.2486    3.6296 O   0  0  0  0  0  0  0  0  0  0  0  0
    0.5095   -2.6747   -1.0440 O   0  0  0  0  0  0  0  0  0  0  0  0
   -0.6609   -1.9962    1.8446 O   0  0  0  0  0  0  0  0  0  0  0  0
    1.8179   -0.6424    2.1275 O   0  0  0  0  0  0  0  0  0  0  0  0
   -2.1625   -1.7011    4.0173 O   0  0  0  0  0  0  0  0  0  0  0  0
    0.9511   -0.4221    4.6389 O   0  0  0  0  0  0  0  0  0  0  0  0
    1.8976   -3.1316    1.0919 O   0  0  0  0  0  0  0  0  0  0  0  0
   -0.5816   -0.9054   -2.5166 O   0  0  0  0  0  0  0  0  0  0  0  0
    2.6613   -0.4268   -0.8133 O   0  0  0  0  0  0  0  0  0  0  0  0
   -2.1506   -1.8580   -0.3014 O   0  0  0  0  0  0  0  0  0  0  0  0
    0.0560   -0.1477    0.1715 O   0  0  0  0  0  0  0  0  0  0  0  0
   -2.6323    0.8110   -1.3459 O   0  0  0  0  0  0  0  0  0  0  0  0
    0.7226    1.5784   -1.6747 O   0  0  0  0  0  0  0  0  0  0  0  0
  1  7  1  0  0  0  0
  4 13  1  0  0  0  0
 11 14  1  0  0  0  0
 10 16  1  0  0  0  0
 13 16  3  0  0  0  0
  5 17  1  0  0  0  0
 14 17  3  0  0  0  0
 10 18  1  0  0  0  0
 15 18  2  0  0  0  0
  5 19  1  0  0  0  0
  6 19  1  0  0  0  0
 15 19  4  0  0  0  0
  1 20  1  0  0  0  0
  4 20  1  0  0  0  0
  1 21  1  0  0  0  0
  2 21  1  0  0  0  0
  7 22  1  0  0  0  0
  8 22  1  0  0  0  0
  2 23  1  0  0  0  0
  4 23  1  0  0  0  0
  2 24  1  0  0  0  0
  5 24  1  0  0  0  0
  4 25  1  0  0  0  0
  6 25  1  0  0  0  0
  5 26  1  0  0  0  0
  6 26  1  0  0  0  0
  2 27  1  0  0  0  0
  3 27  1  0  0  0  0
  8 28  1  0  0  0  0
  9 28  1  0  0  0  0
  3 29  1  0  0  0  0
 11 29  1  0  0  0  0
  8 30  1  0  0  0  0
 10 30  1  0  0  0  0
  8 31  1  0  0  0  0
 11 31  1  0  0  0  0
 10 32  1  0  0  0  0
 12 32  1  0  0  0  0
 11 33  1  0  0  0  0
 12 33  1  0  0  0  0
M  END
