 xtb: 6.7.1pre (5071a88)
          09012617043D

 33 41  0     0  0            999 V2000
   -1.8313   -2.1461    4.1233 Ti  0  0  0  0  0  0  0  0  0  0  0  0
    0.7082   -1.1564    3.0329 Ti  0  0  0  0  0  0  0  0  0  0  0  0
    2.4074   -2.9108    1.1610 Ti  0  0  0  0  0  0  0  0  0  0  0  0
   -2.1276    0.2277    2.5572 Ti  0  0  0  0  0  0  0  0  0  0  0  0
    2.5312    1.3762    2.5350 Ti  0  0  0  0  0  0  0  0  0  0  0  0
   -0.0422    1.8615    3.9592 Ti  0  0  0  0  0  0  0  0  0  0  0  0
   -1.5494   -3.3986    1.1858 Ti  0  0  0  0  0  0  0  0  0  0  0  0
   -0.4977   -1.4500   -0.5717 Ti  0  0  0  0  0  0  0  0  0  0  0  0
    1.9555   -2.6316   -1.8556 Ti  0  0  0  0  0  0  0  0  0  0  0  0
   -1.8451    1.1292   -0.6372 Ti  0  0  0  0  0  0  0  0  0  0  0  0
    2.5153    0.1531   -0.2355 Ti  0  0  0  0  0  0  0  0  0  0  0  0
    0.6429    0.6208   -2.5533 Ti  0  0  0  0  0  0  0  0  0  0  0  0
   -3.3625    1.4261    1.4322 C   0  0  0  0  0  0  0  0  0  0  0  0
    4.3294    0.5199    0.6662 C   0  0  0  0  0  0  0  0  0  0  0  0
    0.6420    2.2273    0.3285 C   0  0  0  0  0  0  0  0  0  0  0  0
   -3.5271    1.8496    0.2745 C   0  0  0  0  0  0  0  0  0  0  0  0
    4.4225    1.1198    1.7511 C   0  0  0  0  0  0  0  0  0  0  0  0
   -0.5378    2.4699   -0.0945 C   0  0  0  0  0  0  0  0  0  0  0  0
    1.8897    1.9531    0.6904 C   0  0  0  0  0  0  0  0  0  0  0  0
   -2.9281   -1.3086    3.0428 O   0  0  0  0  0  0  0  0  0  0  0  0
   -0.1432   -1.7969    4.4078 O   0  0  0  0  0  0  0  0  0  0  0  0
    0.9229   -2.6809    2.1098 O   0  0  0  0  0  0  0  0  0  0  0  0
   -0.5035   -0.3041    2.1381 O   0  0  0  0  0  0  0  0  0  0  0  0
    2.1758   -0.3690    2.7097 O   0  0  0  0  0  0  0  0  0  0  0  0
   -1.6185    1.0378    4.0223 O   0  0  0  0  0  0  0  0  0  0  0  0
    1.6126    2.2651    3.7501 O   0  0  0  0  0  0  0  0  0  0  0  0
   -1.4629   -5.0000    1.2651 O   0  0  0  0  0  0  0  0  0  0  0  0
    0.1847   -2.3604   -1.9035 O   0  0  0  0  0  0  0  0  0  0  0  0
    3.0721   -2.5072   -0.4196 O   0  0  0  0  0  0  0  0  0  0  0  0
   -1.9231   -0.7042   -0.0198 O   0  0  0  0  0  0  0  0  0  0  0  0
    0.9269   -0.7065    0.0559 O   0  0  0  0  0  0  0  0  0  0  0  0
   -1.0435    0.5226   -2.1922 O   0  0  0  0  0  0  0  0  0  0  0  0
    2.3182    0.4169   -1.9485 O   0  0  0  0  0  0  0  0  0  0  0  0
  1  7  1  0  0  0  0
  7  8  1  0  0  0  0
  3  9  1  0  0  0  0
  4 13  1  0  0  0  0
 11 14  1  0  0  0  0
 10 16  1  0  0  0  0
 13 16  3  0  0  0  0
  5 17  1  0  0  0  0
 14 17  3  0  0  0  0
 10 18  1  0  0  0  0
 15 18  2  0  0  0  0
  5 19  1  0  0  0  0
 11 19  1  0  0  0  0
 15 19  2  0  0  0  0
  1 20  1  0  0  0  0
  4 20  1  0  0  0  0
  1 21  1  0  0  0  0
  2 21  1  0  0  0  0
  2 22  1  0  0  0  0
  3 22  1  0  0  0  0
  2 23  1  0  0  0  0
  4 23  1  0  0  0  0
  2 24  1  0  0  0  0
  5 24  1  0  0  0  0
  4 25  1  0  0  0  0
  6 25  1  0  0  0  0
  5 26  1  0  0  0  0
  6 26  1  0  0  0  0
  7 27  2  0  0  0  0
  8 28  1  0  0  0  0
  9 28  1  0  0  0  0
  3 29  1  0  0  0  0
  9 29  1  0  0  0  0
  8 30  1  0  0  0  0
 10 30  1  0  0  0  0
  8 31  1  0  0  0  0
 11 31  1  0  0  0  0
 10 32  1  0  0  0  0
 12 32  1  0  0  0  0
 11 33  1  0  0  0  0
 12 33  1  0  0  0  0
M  END
