 xtb: 6.7.1pre (5071a88)
          08312621183D

 85 95  0     0  0            999 V2000
   -4.6016    0.0510    9.1573 C   0  0  0  0  0  0  0  0  0  0  0  0
   -5.0503    1.3850    9.3671 O   0  0  0  0  0  0  0  0  0  0  0  0
   -4.2015    2.1336   10.2447 C   0  0  0  0  0  0  0  0  0  0  0  0
   -4.3572    1.7334   11.7177 C   0  0  0  0  0  0  0  0  0  0  0  0
   -3.6101    0.5595   12.0657 O   0  0  0  0  0  0  0  0  0  0  0  0
   -2.2432    0.6788   12.1023 C   0  0  0  0  0  0  0  0  0  0  0  0
   -1.5892    1.7694   12.6820 C   0  0  0  0  0  0  0  0  0  0  0  0
   -0.2045    1.8525   12.7264 C   0  0  0  0  0  0  0  0  0  0  0  0
    0.3457    2.9386   13.2744 N   0  0  0  0  0  0  0  0  0  0  0  0
    1.6812    2.9918   13.2935 C   0  0  0  0  0  0  0  0  0  0  0  0
    2.5127    2.0556   12.8321 N   0  0  0  0  0  0  0  0  0  0  0  0
    1.9542    0.9558   12.2966 C   0  0  0  0  0  0  0  0  0  0  0  0
    2.7935   -0.0970   11.8376 N   0  0  0  0  0  0  0  0  0  0  0  0
    4.1835   -0.0563   11.5790 C   0  0  0  0  0  0  0  0  0  0  0  0
    4.9201   -1.2507   11.6317 C   0  0  0  0  0  0  0  0  0  0  0  0
    6.2821   -1.2742   11.3194 C   0  0  0  0  0  0  0  0  0  0  0  0
    6.9247   -0.1038   10.9228 C   0  0  0  0  0  0  0  0  0  0  0  0
    6.2018    1.0850   10.8274 C   0  0  0  0  0  0  0  0  0  0  0  0
    6.8532    2.2847   10.3976 C   0  0  0  0  0  0  0  0  0  0  0  0
    7.3988    3.2918   10.0370 C   0  0  0  0  0  0  0  0  0  0  0  0
    4.8381    1.1024   11.1415 C   0  0  0  0  0  0  0  0  0  0  0  0
    0.5556    0.7998   12.2014 C   0  0  0  0  0  0  0  0  0  0  0  0
   -0.1045   -0.3160   11.6214 C   0  0  0  0  0  0  0  0  0  0  0  0
   -1.4967   -0.3835   11.5753 C   0  0  0  0  0  0  0  0  0  0  0  0
   -2.2146   -1.4188   11.0402 O   0  0  0  0  0  0  0  0  0  0  0  0
   -1.5019   -2.4642   10.3742 C   0  0  0  0  0  0  0  0  0  0  0  0
   -2.5177   -3.4427    9.7835 C   0  0  0  0  0  0  0  0  0  0  0  0
   -3.1111   -2.8653    8.6154 O   0  0  0  0  0  0  0  0  0  0  0  0
   -4.1247   -3.7018    8.0741 C   0  0  0  0  0  0  0  0  0  0  0  0
   -4.7583   -0.5537   10.0535 H   0  0  0  0  0  0  0  0  0  0  0  0
   -3.5506    0.0350    8.8546 H   0  0  0  0  0  0  0  0  0  0  0  0
   -5.1992   -0.3836    8.3510 H   0  0  0  0  0  0  0  0  0  0  0  0
   -4.5216    3.1759   10.1413 H   0  0  0  0  0  0  0  0  0  0  0  0
   -3.1652    2.0731    9.8957 H   0  0  0  0  0  0  0  0  0  0  0  0
   -5.4083    1.4916   11.9129 H   0  0  0  0  0  0  0  0  0  0  0  0
   -4.1050    2.5680   12.3786 H   0  0  0  0  0  0  0  0  0  0  0  0
   -2.1518    2.5778   13.1382 H   0  0  0  0  0  0  0  0  0  0  0  0
    2.1322    3.8774   13.7280 H   0  0  0  0  0  0  0  0  0  0  0  0
    2.5353   -0.9486   12.3253 H   0  0  0  0  0  0  0  0  0  0  0  0
    4.4399   -2.1811   11.9236 H   0  0  0  0  0  0  0  0  0  0  0  0
    6.8389   -2.2055   11.3800 H   0  0  0  0  0  0  0  0  0  0  0  0
    7.9839   -0.1255   10.6790 H   0  0  0  0  0  0  0  0  0  0  0  0
    7.8801    4.1865    9.7177 H   0  0  0  0  0  0  0  0  0  0  0  0
    4.2858    2.0326   11.0357 H   0  0  0  0  0  0  0  0  0  0  0  0
    0.4979   -1.1127   11.1983 H   0  0  0  0  0  0  0  0  0  0  0  0
   -0.8800   -2.9963   11.1027 H   0  0  0  0  0  0  0  0  0  0  0  0
   -0.8860   -2.0447    9.5701 H   0  0  0  0  0  0  0  0  0  0  0  0
   -3.3013   -3.6651   10.5168 H   0  0  0  0  0  0  0  0  0  0  0  0
   -2.0093   -4.3687    9.4936 H   0  0  0  0  0  0  0  0  0  0  0  0
   -4.5295   -3.2180    7.1812 H   0  0  0  0  0  0  0  0  0  0  0  0
   -3.7086   -4.6727    7.7886 H   0  0  0  0  0  0  0  0  0  0  0  0
   -4.9357   -3.8359    8.7963 H   0  0  0  0  0  0  0  0  0  0  0  0
   -2.1419   -3.0088    2.1197 Ti  0  0  0  0  0  0  0  0  0  0  0  0
    0.2890   -1.6948    1.4324 Ti  0  0  0  0  0  0  0  0  0  0  0  0
    1.9031   -3.0677   -0.7293 Ti  0  0  0  0  0  0  0  0  0  0  0  0
   -2.5215   -0.2519    1.3037 Ti  0  0  0  0  0  0  0  0  0  0  0  0
    2.1420    0.4995    2.2044 Ti  0  0  0  0  0  0  0  0  0  0  0  0
   -0.6814    0.1896    3.6812 Ti  0  0  0  0  0  0  0  0  0  0  0  0
   -2.0368   -3.0777   -1.2005 Ti  0  0  0  0  0  0  0  0  0  0  0  0
   -0.6053   -0.7709   -2.0351 Ti  0  0  0  0  0  0  0  0  0  0  0  0
    1.9455   -1.5873   -3.4124 Ti  0  0  0  0  0  0  0  0  0  0  0  0
   -1.8782    1.7466   -1.2400 Ti  0  0  0  0  0  0  0  0  0  0  0  0
    2.4125    0.4542   -0.7742 Ti  0  0  0  0  0  0  0  0  0  0  0  0
    0.8177    1.8385   -2.9400 Ti  0  0  0  0  0  0  0  0  0  0  0  0
   -3.6784    1.2814    0.6007 C   0  0  0  0  0  0  0  0  0  0  0  0
    4.1282    0.4828    0.3873 C   0  0  0  0  0  0  0  0  0  0  0  0
    0.4555    2.2672    0.3497 C   0  0  0  0  0  0  0  0  0  0  0  0
   -3.6667    2.1188   -0.3139 C   0  0  0  0  0  0  0  0  0  0  0  0
    4.1160    0.6322    1.6214 C   0  0  0  0  0  0  0  0  0  0  0  0
   -0.6352    2.7410   -0.1189 C   0  0  0  0  0  0  0  0  0  0  0  0
    1.6301    1.7810    0.7342 C   0  0  0  0  0  0  0  0  0  0  0  0
   -3.0935   -1.9569    1.0379 O   0  0  0  0  0  0  0  0  0  0  0  0
   -0.4872   -2.6058    2.7012 O   0  0  0  0  0  0  0  0  0  0  0  0
    0.3141   -2.8889    0.1450 O   0  0  0  0  0  0  0  0  0  0  0  0
   -0.8008   -0.4359    0.9712 O   0  0  0  0  0  0  0  0  0  0  0  0
    1.9029   -1.1583    1.4694 O   0  0  0  0  0  0  0  0  0  0  0  0
   -2.3227   -0.1139    3.0248 O   0  0  0  0  0  0  0  0  0  0  0  0
    1.0138    0.4416    3.5688 O   0  0  0  0  0  0  0  0  0  0  0  0
   -1.7720   -4.5879   -1.6528 O   0  0  0  0  0  0  0  0  0  0  0  0
    0.1906   -1.1892   -3.5340 O   0  0  0  0  0  0  0  0  0  0  0  0
    2.8314   -2.1702   -1.9180 O   0  0  0  0  0  0  0  0  0  0  0  0
   -2.0546   -0.2244   -1.3375 O   0  0  0  0  0  0  0  0  0  0  0  0
    0.7685   -0.3906   -1.0637 O   0  0  0  0  0  0  0  0  0  0  0  0
   -0.9000    1.6493   -2.8186 O   0  0  0  0  0  0  0  0  0  0  0  0
    2.4153    1.3575   -2.2641 O   0  0  0  0  0  0  0  0  0  0  0  0
  1  2  1  0  0  0  0
  2  3  1  0  0  0  0
  3  4  1  0  0  0  0
  4  5  1  0  0  0  0
  5  6  1  0  0  0  0
  6  7  4  0  0  0  0
  7  8  4  0  0  0  0
  8  9  4  0  0  0  0
  9 10  4  0  0  0  0
 10 11  4  0  0  0  0
 11 12  4  0  0  0  0
 12 13  1  0  0  0  0
 13 14  1  0  0  0  0
 14 15  4  0  0  0  0
 15 16  4  0  0  0  0
 16 17  4  0  0  0  0
 17 18  4  0  0  0  0
 18 19  1  0  0  0  0
 19 20  3  0  0  0  0
 14 21  4  0  0  0  0
 18 21  4  0  0  0  0
  8 22  4  0  0  0  0
 12 22  4  0  0  0  0
 22 23  4  0  0  0  0
  6 24  4  0  0  0  0
 23 24  4  0  0  0  0
 24 25  1  0  0  0  0
 25 26  1  0  0  0  0
 26 27  1  0  0  0  0
 27 28  1  0  0  0  0
 28 29  1  0  0  0  0
  1 30  1  0  0  0  0
  1 31  1  0  0  0  0
  1 32  1  0  0  0  0
  3 33  1  0  0  0  0
  3 34  1  0  0  0  0
  4 35  1  0  0  0  0
  4 36  1  0  0  0  0
  7 37  1  0  0  0  0
 10 38  1  0  0  0  0
 13 39  1  0  0  0  0
 15 40  1  0  0  0  0
 16 41  1  0  0  0  0
 17 42  1  0  0  0  0
 20 43  1  0  0  0  0
 21 44  1  0  0  0  0
 23 45  1  0  0  0  0
 26 46  1  0  0  0  0
 26 47  1  0  0  0  0
 27 48  1  0  0  0  0
 27 49  1  0  0  0  0
 29 50  1  0  0  0  0
 29 51  1  0  0  0  0
 29 52  1  0  0  0  0
 53 59  1  0  0  0  0
 59 60  1  0  0  0  0
 55 61  1  0  0  0  0
 56 65  1  0  0  0  0
 63 66  1  0  0  0  0
 62 68  1  0  0  0  0
 65 68  3  0  0  0  0
 57 69  1  0  0  0  0
 66 69  3  0  0  0  0
 62 70  1  0  0  0  0
 67 70  2  0  0  0  0
 57 71  1  0  0  0  0
 63 71  1  0  0  0  0
 67 71  2  0  0  0  0
 53 72  1  0  0  0  0
 56 72  1  0  0  0  0
 53 73  1  0  0  0  0
 54 73  1  0  0  0  0
 54 74  1  0  0  0  0
 55 74  1  0  0  0  0
 54 75  1  0  0  0  0
 56 75  1  0  0  0  0
 54 76  1  0  0  0  0
 57 76  1  0  0  0  0
 56 77  1  0  0  0  0
 58 77  1  0  0  0  0
 57 78  1  0  0  0  0
 58 78  1  0  0  0  0
 59 79  2  0  0  0  0
 60 80  1  0  0  0  0
 61 80  1  0  0  0  0
 55 81  1  0  0  0  0
 61 81  1  0  0  0  0
 60 82  1  0  0  0  0
 62 82  1  0  0  0  0
 60 83  1  0  0  0  0
 63 83  1  0  0  0  0
 62 84  1  0  0  0  0
 64 84  1  0  0  0  0
 63 85  1  0  0  0  0
 64 85  1  0  0  0  0
M  END
