 xtb: 6.7.1pre (5071a88)
          09012620313D

 33 41  0     0  0            999 V2000
   -1.5525   -1.9860    4.2242 Ti  0  0  0  0  0  0  0  0  0  0  0  0
    0.7426   -1.0057    2.8500 Ti  0  0  0  0  0  0  0  0  0  0  0  0
    2.2303   -3.0667    1.2076 Ti  0  0  0  0  0  0  0  0  0  0  0  0
   -2.1450    0.2450    2.4687 Ti  0  0  0  0  0  0  0  0  0  0  0  0
    2.5376    1.3445    2.5447 Ti  0  0  0  0  0  0  0  0  0  0  0  0
   -0.1272    1.5805    4.3047 Ti  0  0  0  0  0  0  0  0  0  0  0  0
   -1.7235   -3.3161    1.1855 Ti  0  0  0  0  0  0  0  0  0  0  0  0
   -0.5113   -1.4789   -0.6084 Ti  0  0  0  0  0  0  0  0  0  0  0  0
    1.9539   -2.7112   -1.8259 Ti  0  0  0  0  0  0  0  0  0  0  0  0
   -1.8399    1.1323   -0.6878 Ti  0  0  0  0  0  0  0  0  0  0  0  0
    2.5410    0.1798   -0.2095 Ti  0  0  0  0  0  0  0  0  0  0  0  0
    0.6854    0.6193   -2.5589 Ti  0  0  0  0  0  0  0  0  0  0  0  0
   -3.4387    1.3770    1.3600 C   0  0  0  0  0  0  0  0  0  0  0  0
    4.3503    0.6748    0.6711 C   0  0  0  0  0  0  0  0  0  0  0  0
    0.5968    2.2486    0.3493 C   0  0  0  0  0  0  0  0  0  0  0  0
   -3.5586    1.8040    0.2017 C   0  0  0  0  0  0  0  0  0  0  0  0
    4.4414    1.2791    1.7537 C   0  0  0  0  0  0  0  0  0  0  0  0
   -0.5556    2.4924   -0.1461 C   0  0  0  0  0  0  0  0  0  0  0  0
    1.8268    1.9646    0.7631 C   0  0  0  0  0  0  0  0  0  0  0  0
   -2.6510   -1.4402    2.9301 O   0  0  0  0  0  0  0  0  0  0  0  0
    0.1260   -1.3778    4.4396 O   0  0  0  0  0  0  0  0  0  0  0  0
    0.7196   -2.6023    2.1131 O   0  0  0  0  0  0  0  0  0  0  0  0
   -0.4525   -0.0386    2.0631 O   0  0  0  0  0  0  0  0  0  0  0  0
    2.3223   -0.4723    2.5127 O   0  0  0  0  0  0  0  0  0  0  0  0
   -1.8019    1.0339    3.9791 O   0  0  0  0  0  0  0  0  0  0  0  0
    1.5380    1.7863    3.9375 O   0  0  0  0  0  0  0  0  0  0  0  0
   -1.4720   -4.8891    1.3194 O   0  0  0  0  0  0  0  0  0  0  0  0
    0.1758   -2.4192   -1.9129 O   0  0  0  0  0  0  0  0  0  0  0  0
    2.9973   -2.6702   -0.3204 O   0  0  0  0  0  0  0  0  0  0  0  0
   -1.9173   -0.7226   -0.0232 O   0  0  0  0  0  0  0  0  0  0  0  0
    0.9200   -0.7410    0.0099 O   0  0  0  0  0  0  0  0  0  0  0  0
   -1.0039    0.4702   -2.2076 O   0  0  0  0  0  0  0  0  0  0  0  0
    2.3596    0.4510   -1.9209 O   0  0  0  0  0  0  0  0  0  0  0  0
  1  7  1  0  0  0  0
  7  8  1  0  0  0  0
  3  9  1  0  0  0  0
  4 13  1  0  0  0  0
 11 14  1  0  0  0  0
 10 16  1  0  0  0  0
 13 16  3  0  0  0  0
  5 17  1  0  0  0  0
 14 17  3  0  0  0  0
 10 18  1  0  0  0  0
 15 18  2  0  0  0  0
  5 19  1  0  0  0  0
 11 19  1  0  0  0  0
 15 19  2  0  0  0  0
  1 20  1  0  0  0  0
  4 20  1  0  0  0  0
  1 21  1  0  0  0  0
  2 21  1  0  0  0  0
  2 22  1  0  0  0  0
  3 22  1  0  0  0  0
  2 23  1  0  0  0  0
  4 23  1  0  0  0  0
  2 24  1  0  0  0  0
  5 24  1  0  0  0  0
  4 25  1  0  0  0  0
  6 25  1  0  0  0  0
  5 26  1  0  0  0  0
  6 26  1  0  0  0  0
  7 27  2  0  0  0  0
  8 28  1  0  0  0  0
  9 28  1  0  0  0  0
  3 29  1  0  0  0  0
  9 29  1  0  0  0  0
  8 30  1  0  0  0  0
 10 30  1  0  0  0  0
  8 31  1  0  0  0  0
 11 31  1  0  0  0  0
 10 32  1  0  0  0  0
 12 32  1  0  0  0  0
 11 33  1  0  0  0  0
 12 33  1  0  0  0  0
M  END
