 xtb: 6.7.1pre (5071a88)
          08312621553D

 85 95  0     0  0            999 V2000
   -6.5045    2.8269    8.7821 C   0  0  0  0  0  0  0  0  0  0  0  0
   -5.9007    1.7628    8.0574 O   0  0  0  0  0  0  0  0  0  0  0  0
   -4.8572    1.1431    8.8083 C   0  0  0  0  0  0  0  0  0  0  0  0
   -4.2507    0.0114    7.9820 C   0  0  0  0  0  0  0  0  0  0  0  0
   -3.2161   -0.6654    8.6943 O   0  0  0  0  0  0  0  0  0  0  0  0
   -1.9433   -0.1653    8.6883 C   0  0  0  0  0  0  0  0  0  0  0  0
   -1.5463    0.9852    7.9950 C   0  0  0  0  0  0  0  0  0  0  0  0
   -0.2510    1.4910    8.0632 C   0  0  0  0  0  0  0  0  0  0  0  0
    0.0354    2.5927    7.3656 N   0  0  0  0  0  0  0  0  0  0  0  0
    1.2882    3.0516    7.4534 C   0  0  0  0  0  0  0  0  0  0  0  0
    2.2732    2.5207    8.1810 N   0  0  0  0  0  0  0  0  0  0  0  0
    1.9779    1.4201    8.8952 C   0  0  0  0  0  0  0  0  0  0  0  0
    2.9769    0.8265    9.7137 N   0  0  0  0  0  0  0  0  0  0  0  0
    4.3690    1.0706    9.7306 C   0  0  0  0  0  0  0  0  0  0  0  0
    5.0809    1.4872    8.5993 C   0  0  0  0  0  0  0  0  0  0  0  0
    6.4688    1.6534    8.6382 C   0  0  0  0  0  0  0  0  0  0  0  0
    7.1724    1.3792    9.8086 C   0  0  0  0  0  0  0  0  0  0  0  0
    6.4881    0.9272   10.9354 C   0  0  0  0  0  0  0  0  0  0  0  0
    7.2060    0.6241   12.1358 C   0  0  0  0  0  0  0  0  0  0  0  0
    7.8081    0.3695   13.1431 C   0  0  0  0  0  0  0  0  0  0  0  0
    5.0988    0.7629   10.8907 C   0  0  0  0  0  0  0  0  0  0  0  0
    0.6939    0.8371    8.8610 C   0  0  0  0  0  0  0  0  0  0  0  0
    0.3104   -0.3353    9.5521 C   0  0  0  0  0  0  0  0  0  0  0  0
   -0.9868   -0.8431    9.4528 C   0  0  0  0  0  0  0  0  0  0  0  0
   -1.2006   -1.9707   10.2008 O   0  0  0  0  0  0  0  0  0  0  0  0
   -1.9781   -2.9941    9.5675 C   0  0  0  0  0  0  0  0  0  0  0  0
   -1.5174   -4.3596   10.0896 C   0  0  0  0  0  0  0  0  0  0  0  0
   -1.7179   -4.5400   11.4952 O   0  0  0  0  0  0  0  0  0  0  0  0
   -3.0790   -4.7160   11.8590 C   0  0  0  0  0  0  0  0  0  0  0  0
   -5.7677    3.6047    9.0050 H   0  0  0  0  0  0  0  0  0  0  0  0
   -6.9517    2.4539    9.7085 H   0  0  0  0  0  0  0  0  0  0  0  0
   -7.2940    3.2607    8.1627 H   0  0  0  0  0  0  0  0  0  0  0  0
   -5.2577    0.7408    9.7467 H   0  0  0  0  0  0  0  0  0  0  0  0
   -4.0956    1.8871    9.0658 H   0  0  0  0  0  0  0  0  0  0  0  0
   -3.9361    0.3357    6.9833 H   0  0  0  0  0  0  0  0  0  0  0  0
   -5.0359   -0.7307    7.7910 H   0  0  0  0  0  0  0  0  0  0  0  0
   -2.2447    1.5420    7.3774 H   0  0  0  0  0  0  0  0  0  0  0  0
    1.5267    3.9416    6.8812 H   0  0  0  0  0  0  0  0  0  0  0  0
    2.6089    0.7134   10.6528 H   0  0  0  0  0  0  0  0  0  0  0  0
    4.5633    1.6825    7.6640 H   0  0  0  0  0  0  0  0  0  0  0  0
    6.9972    1.9896    7.7500 H   0  0  0  0  0  0  0  0  0  0  0  0
    8.2513    1.5088    9.8315 H   0  0  0  0  0  0  0  0  0  0  0  0
    8.3430    0.1436   14.0359 H   0  0  0  0  0  0  0  0  0  0  0  0
    4.5843    0.3938   11.7745 H   0  0  0  0  0  0  0  0  0  0  0  0
    1.0300   -0.8793   10.1603 H   0  0  0  0  0  0  0  0  0  0  0  0
   -1.8397   -2.9808    8.4791 H   0  0  0  0  0  0  0  0  0  0  0  0
   -3.0330   -2.8357    9.8074 H   0  0  0  0  0  0  0  0  0  0  0  0
   -2.0133   -5.1696    9.5428 H   0  0  0  0  0  0  0  0  0  0  0  0
   -0.4393   -4.4580    9.9222 H   0  0  0  0  0  0  0  0  0  0  0  0
   -3.1166   -4.9790   12.9198 H   0  0  0  0  0  0  0  0  0  0  0  0
   -3.6432   -3.7903   11.7200 H   0  0  0  0  0  0  0  0  0  0  0  0
   -3.5341   -5.5285   11.2846 H   0  0  0  0  0  0  0  0  0  0  0  0
   -2.1419   -3.0088    2.1197 Ti  0  0  0  0  0  0  0  0  0  0  0  0
    0.2890   -1.6948    1.4324 Ti  0  0  0  0  0  0  0  0  0  0  0  0
    1.9031   -3.0677   -0.7293 Ti  0  0  0  0  0  0  0  0  0  0  0  0
   -2.5215   -0.2519    1.3037 Ti  0  0  0  0  0  0  0  0  0  0  0  0
    2.1420    0.4995    2.2044 Ti  0  0  0  0  0  0  0  0  0  0  0  0
   -0.6814    0.1896    3.6812 Ti  0  0  0  0  0  0  0  0  0  0  0  0
   -2.0368   -3.0777   -1.2005 Ti  0  0  0  0  0  0  0  0  0  0  0  0
   -0.6053   -0.7709   -2.0351 Ti  0  0  0  0  0  0  0  0  0  0  0  0
    1.9455   -1.5873   -3.4124 Ti  0  0  0  0  0  0  0  0  0  0  0  0
   -1.8782    1.7466   -1.2400 Ti  0  0  0  0  0  0  0  0  0  0  0  0
    2.4125    0.4542   -0.7742 Ti  0  0  0  0  0  0  0  0  0  0  0  0
    0.8177    1.8385   -2.9400 Ti  0  0  0  0  0  0  0  0  0  0  0  0
   -3.6784    1.2814    0.6007 C   0  0  0  0  0  0  0  0  0  0  0  0
    4.1282    0.4828    0.3873 C   0  0  0  0  0  0  0  0  0  0  0  0
    0.4555    2.2672    0.3497 C   0  0  0  0  0  0  0  0  0  0  0  0
   -3.6667    2.1188   -0.3139 C   0  0  0  0  0  0  0  0  0  0  0  0
    4.1160    0.6322    1.6214 C   0  0  0  0  0  0  0  0  0  0  0  0
   -0.6352    2.7410   -0.1189 C   0  0  0  0  0  0  0  0  0  0  0  0
    1.6301    1.7810    0.7342 C   0  0  0  0  0  0  0  0  0  0  0  0
   -3.0935   -1.9569    1.0379 O   0  0  0  0  0  0  0  0  0  0  0  0
   -0.4872   -2.6058    2.7012 O   0  0  0  0  0  0  0  0  0  0  0  0
    0.3141   -2.8889    0.1450 O   0  0  0  0  0  0  0  0  0  0  0  0
   -0.8008   -0.4359    0.9712 O   0  0  0  0  0  0  0  0  0  0  0  0
    1.9029   -1.1583    1.4694 O   0  0  0  0  0  0  0  0  0  0  0  0
   -2.3227   -0.1139    3.0248 O   0  0  0  0  0  0  0  0  0  0  0  0
    1.0138    0.4416    3.5688 O   0  0  0  0  0  0  0  0  0  0  0  0
   -1.7720   -4.5879   -1.6528 O   0  0  0  0  0  0  0  0  0  0  0  0
    0.1906   -1.1892   -3.5340 O   0  0  0  0  0  0  0  0  0  0  0  0
    2.8314   -2.1702   -1.9180 O   0  0  0  0  0  0  0  0  0  0  0  0
   -2.0546   -0.2244   -1.3375 O   0  0  0  0  0  0  0  0  0  0  0  0
    0.7685   -0.3906   -1.0637 O   0  0  0  0  0  0  0  0  0  0  0  0
   -0.9000    1.6493   -2.8186 O   0  0  0  0  0  0  0  0  0  0  0  0
    2.4153    1.3575   -2.2641 O   0  0  0  0  0  0  0  0  0  0  0  0
  1  2  1  0  0  0  0
  2  3  1  0  0  0  0
  3  4  1  0  0  0  0
  4  5  1  0  0  0  0
  5  6  1  0  0  0  0
  6  7  4  0  0  0  0
  7  8  4  0  0  0  0
  8  9  4  0  0  0  0
  9 10  4  0  0  0  0
 10 11  4  0  0  0  0
 11 12  4  0  0  0  0
 12 13  1  0  0  0  0
 13 14  1  0  0  0  0
 14 15  4  0  0  0  0
 15 16  4  0  0  0  0
 16 17  4  0  0  0  0
 17 18  4  0  0  0  0
 18 19  1  0  0  0  0
 19 20  3  0  0  0  0
 14 21  4  0  0  0  0
 18 21  4  0  0  0  0
  8 22  4  0  0  0  0
 12 22  4  0  0  0  0
 22 23  4  0  0  0  0
  6 24  4  0  0  0  0
 23 24  4  0  0  0  0
 24 25  1  0  0  0  0
 25 26  1  0  0  0  0
 26 27  1  0  0  0  0
 27 28  1  0  0  0  0
 28 29  1  0  0  0  0
  1 30  1  0  0  0  0
  1 31  1  0  0  0  0
  1 32  1  0  0  0  0
  3 33  1  0  0  0  0
  3 34  1  0  0  0  0
  4 35  1  0  0  0  0
  4 36  1  0  0  0  0
  7 37  1  0  0  0  0
 10 38  1  0  0  0  0
 13 39  1  0  0  0  0
 15 40  1  0  0  0  0
 16 41  1  0  0  0  0
 17 42  1  0  0  0  0
 20 43  1  0  0  0  0
 21 44  1  0  0  0  0
 23 45  1  0  0  0  0
 26 46  1  0  0  0  0
 26 47  1  0  0  0  0
 27 48  1  0  0  0  0
 27 49  1  0  0  0  0
 29 50  1  0  0  0  0
 29 51  1  0  0  0  0
 29 52  1  0  0  0  0
 53 59  1  0  0  0  0
 59 60  1  0  0  0  0
 55 61  1  0  0  0  0
 56 65  1  0  0  0  0
 63 66  1  0  0  0  0
 62 68  1  0  0  0  0
 65 68  3  0  0  0  0
 57 69  1  0  0  0  0
 66 69  3  0  0  0  0
 62 70  1  0  0  0  0
 67 70  2  0  0  0  0
 57 71  1  0  0  0  0
 63 71  1  0  0  0  0
 67 71  2  0  0  0  0
 53 72  1  0  0  0  0
 56 72  1  0  0  0  0
 53 73  1  0  0  0  0
 54 73  1  0  0  0  0
 54 74  1  0  0  0  0
 55 74  1  0  0  0  0
 54 75  1  0  0  0  0
 56 75  1  0  0  0  0
 54 76  1  0  0  0  0
 57 76  1  0  0  0  0
 56 77  1  0  0  0  0
 58 77  1  0  0  0  0
 57 78  1  0  0  0  0
 58 78  1  0  0  0  0
 59 79  2  0  0  0  0
 60 80  1  0  0  0  0
 61 80  1  0  0  0  0
 55 81  1  0  0  0  0
 61 81  1  0  0  0  0
 60 82  1  0  0  0  0
 62 82  1  0  0  0  0
 60 83  1  0  0  0  0
 63 83  1  0  0  0  0
 62 84  1  0  0  0  0
 64 84  1  0  0  0  0
 63 85  1  0  0  0  0
 64 85  1  0  0  0  0
M  END
