 xtb: 6.7.1pre (5071a88)
          08312620313D

 85 99  0     0  0            999 V2000
   -4.6016    0.0510    3.7037 C   0  0  0  0  0  0  0  0  0  0  0  0
   -5.0503    1.3850    3.9136 O   0  0  0  0  0  0  0  0  0  0  0  0
   -4.2015    2.1336    4.7912 C   0  0  0  0  0  0  0  0  0  0  0  0
   -4.3572    1.7334    6.2641 C   0  0  0  0  0  0  0  0  0  0  0  0
   -3.6101    0.5595    6.6122 O   0  0  0  0  0  0  0  0  0  0  0  0
   -2.2432    0.6788    6.6487 C   0  0  0  0  0  0  0  0  0  0  0  0
   -1.5892    1.7694    7.2284 C   0  0  0  0  0  0  0  0  0  0  0  0
   -0.2045    1.8525    7.2728 C   0  0  0  0  0  0  0  0  0  0  0  0
    0.3457    2.9386    7.8208 N   0  0  0  0  0  0  0  0  0  0  0  0
    1.6812    2.9918    7.8399 C   0  0  0  0  0  0  0  0  0  0  0  0
    2.5127    2.0556    7.3785 N   0  0  0  0  0  0  0  0  0  0  0  0
    1.9542    0.9558    6.8430 C   0  0  0  0  0  0  0  0  0  0  0  0
    2.7935   -0.0970    6.3840 N   0  0  0  0  0  0  0  0  0  0  0  0
    4.1835   -0.0563    6.1254 C   0  0  0  0  0  0  0  0  0  0  0  0
    4.9201   -1.2507    6.1781 C   0  0  0  0  0  0  0  0  0  0  0  0
    6.2821   -1.2742    5.8658 C   0  0  0  0  0  0  0  0  0  0  0  0
    6.9247   -0.1038    5.4692 C   0  0  0  0  0  0  0  0  0  0  0  0
    6.2018    1.0850    5.3738 C   0  0  0  0  0  0  0  0  0  0  0  0
    6.8532    2.2847    4.9440 C   0  0  0  0  0  0  0  0  0  0  0  0
    7.3988    3.2918    4.5834 C   0  0  0  0  0  0  0  0  0  0  0  0
    4.8381    1.1024    5.6879 C   0  0  0  0  0  0  0  0  0  0  0  0
    0.5556    0.7998    6.7478 C   0  0  0  0  0  0  0  0  0  0  0  0
   -0.1045   -0.3160    6.1678 C   0  0  0  0  0  0  0  0  0  0  0  0
   -1.4967   -0.3835    6.1218 C   0  0  0  0  0  0  0  0  0  0  0  0
   -2.2146   -1.4188    5.5867 O   0  0  0  0  0  0  0  0  0  0  0  0
   -1.5019   -2.4642    4.9206 C   0  0  0  0  0  0  0  0  0  0  0  0
   -2.5177   -3.4427    4.3299 C   0  0  0  0  0  0  0  0  0  0  0  0
   -3.1111   -2.8653    3.1618 O   0  0  0  0  0  0  0  0  0  0  0  0
   -4.1247   -3.7018    2.6206 C   0  0  0  0  0  0  0  0  0  0  0  0
   -4.7583   -0.5537    4.5999 H   0  0  0  0  0  0  0  0  0  0  0  0
   -3.5506    0.0350    3.4010 H   0  0  0  0  0  0  0  0  0  0  0  0
   -5.1992   -0.3836    2.8974 H   0  0  0  0  0  0  0  0  0  0  0  0
   -4.5216    3.1759    4.6877 H   0  0  0  0  0  0  0  0  0  0  0  0
   -3.1652    2.0731    4.4421 H   0  0  0  0  0  0  0  0  0  0  0  0
   -5.4083    1.4916    6.4593 H   0  0  0  0  0  0  0  0  0  0  0  0
   -4.1050    2.5680    6.9250 H   0  0  0  0  0  0  0  0  0  0  0  0
   -2.1518    2.5778    7.6846 H   0  0  0  0  0  0  0  0  0  0  0  0
    2.1322    3.8774    8.2744 H   0  0  0  0  0  0  0  0  0  0  0  0
    2.5353   -0.9486    6.8717 H   0  0  0  0  0  0  0  0  0  0  0  0
    4.4399   -2.1811    6.4700 H   0  0  0  0  0  0  0  0  0  0  0  0
    6.8389   -2.2055    5.9264 H   0  0  0  0  0  0  0  0  0  0  0  0
    7.9839   -0.1255    5.2254 H   0  0  0  0  0  0  0  0  0  0  0  0
    7.8801    4.1865    4.2642 H   0  0  0  0  0  0  0  0  0  0  0  0
    4.2858    2.0326    5.5821 H   0  0  0  0  0  0  0  0  0  0  0  0
    0.4979   -1.1127    5.7447 H   0  0  0  0  0  0  0  0  0  0  0  0
   -0.8800   -2.9963    5.6492 H   0  0  0  0  0  0  0  0  0  0  0  0
   -0.8860   -2.0447    4.1165 H   0  0  0  0  0  0  0  0  0  0  0  0
   -3.3013   -3.6651    5.0632 H   0  0  0  0  0  0  0  0  0  0  0  0
   -2.0093   -4.3687    4.0400 H   0  0  0  0  0  0  0  0  0  0  0  0
   -4.5295   -3.2180    1.7277 H   0  0  0  0  0  0  0  0  0  0  0  0
   -3.7086   -4.6727    2.3351 H   0  0  0  0  0  0  0  0  0  0  0  0
   -4.9357   -3.8359    3.3427 H   0  0  0  0  0  0  0  0  0  0  0  0
   -3.0000   -2.6000    1.2500 Ti  0  0  0  0  0  0  0  0  0  0  0  0
    0.0000   -2.6000    1.2500 Ti  0  0  0  0  0  0  0  0  0  0  0  0
    3.0000   -2.6000    1.2500 Ti  0  0  0  0  0  0  0  0  0  0  0  0
   -1.5000    0.0000    1.2500 Ti  0  0  0  0  0  0  0  0  0  0  0  0
    1.5000    0.0000    1.2500 Ti  0  0  0  0  0  0  0  0  0  0  0  0
    0.0000    2.6000    1.2500 Ti  0  0  0  0  0  0  0  0  0  0  0  0
   -3.0000   -2.6000   -1.2500 Ti  0  0  0  0  0  0  0  0  0  0  0  0
    0.0000   -2.6000   -1.2500 Ti  0  0  0  0  0  0  0  0  0  0  0  0
    3.0000   -2.6000   -1.2500 Ti  0  0  0  0  0  0  0  0  0  0  0  0
   -1.5000    0.0000   -1.2500 Ti  0  0  0  0  0  0  0  0  0  0  0  0
    1.5000    0.0000   -1.2500 Ti  0  0  0  0  0  0  0  0  0  0  0  0
    0.0000    2.6000   -1.2500 Ti  0  0  0  0  0  0  0  0  0  0  0  0
   -1.5000   -1.3000    0.0000 C   0  0  0  0  0  0  0  0  0  0  0  0
    1.5000   -1.3000    0.0000 C   0  0  0  0  0  0  0  0  0  0  0  0
    0.0000    1.3000    0.0000 C   0  0  0  0  0  0  0  0  0  0  0  0
   -3.0000    0.0000    0.0000 C   0  0  0  0  0  0  0  0  0  0  0  0
    3.0000    0.0000    0.0000 C   0  0  0  0  0  0  0  0  0  0  0  0
   -1.5000    2.6000    0.0000 C   0  0  0  0  0  0  0  0  0  0  0  0
    1.5000    2.6000    0.0000 C   0  0  0  0  0  0  0  0  0  0  0  0
   -3.0000   -2.6000    2.4500 O   0  0  0  0  0  0  0  0  0  0  0  0
    0.0000   -2.6000    2.4500 O   0  0  0  0  0  0  0  0  0  0  0  0
    3.0000   -2.6000    2.4500 O   0  0  0  0  0  0  0  0  0  0  0  0
   -1.5000    0.0000    2.4500 O   0  0  0  0  0  0  0  0  0  0  0  0
    1.5000    0.0000    2.4500 O   0  0  0  0  0  0  0  0  0  0  0  0
   -1.5000    2.6000    2.4500 O   0  0  0  0  0  0  0  0  0  0  0  0
    1.5000    2.6000    2.4500 O   0  0  0  0  0  0  0  0  0  0  0  0
   -3.0000   -2.6000   -2.4500 O   0  0  0  0  0  0  0  0  0  0  0  0
    0.0000   -2.6000   -2.4500 O   0  0  0  0  0  0  0  0  0  0  0  0
    3.0000   -2.6000   -2.4500 O   0  0  0  0  0  0  0  0  0  0  0  0
   -1.5000    0.0000   -2.4500 O   0  0  0  0  0  0  0  0  0  0  0  0
    1.5000    0.0000   -2.4500 O   0  0  0  0  0  0  0  0  0  0  0  0
   -1.5000    2.6000   -2.4500 O   0  0  0  0  0  0  0  0  0  0  0  0
    1.5000    2.6000   -2.4500 O   0  0  0  0  0  0  0  0  0  0  0  0
  1  2  1  0  0  0  0
  2  3  1  0  0  0  0
  3  4  1  0  0  0  0
  4  5  1  0  0  0  0
  5  6  1  0  0  0  0
  6  7  4  0  0  0  0
  7  8  4  0  0  0  0
  8  9  4  0  0  0  0
  9 10  4  0  0  0  0
 10 11  4  0  0  0  0
 11 12  4  0  0  0  0
 12 13  1  0  0  0  0
 13 14  1  0  0  0  0
 14 15  4  0  0  0  0
 15 16  4  0  0  0  0
 16 17  4  0  0  0  0
 17 18  4  0  0  0  0
 18 19  1  0  0  0  0
 19 20  3  0  0  0  0
 14 21  4  0  0  0  0
 18 21  4  0  0  0  0
  8 22  4  0  0  0  0
 12 22  4  0  0  0  0
 22 23  4  0  0  0  0
  6 24  4  0  0  0  0
 23 24  4  0  0  0  0
 24 25  1  0  0  0  0
 25 26  1  0  0  0  0
 26 27  1  0  0  0  0
 27 28  1  0  0  0  0
 28 29  1  0  0  0  0
  1 30  1  0  0  0  0
  1 31  1  0  0  0  0
  1 32  1  0  0  0  0
  3 33  1  0  0  0  0
  3 34  1  0  0  0  0
  4 35  1  0  0  0  0
  4 36  1  0  0  0  0
  7 37  1  0  0  0  0
 10 38  1  0  0  0  0
 13 39  1  0  0  0  0
 15 40  1  0  0  0  0
 16 41  1  0  0  0  0
 17 42  1  0  0  0  0
 20 43  1  0  0  0  0
 21 44  1  0  0  0  0
 23 45  1  0  0  0  0
 26 46  1  0  0  0  0
 26 47  1  0  0  0  0
 27 48  1  0  0  0  0
 27 49  1  0  0  0  0
 29 50  1  0  0  0  0
 29 51  1  0  0  0  0
 29 52  1  0  0  0  0
 54 60  1  0  0  0  0
 55 61  1  0  0  0  0
 60 61  1  0  0  0  0
 54 65  1  0  0  0  0
 56 65  1  0  0  0  0
 59 65  1  0  0  0  0
 60 65  1  0  0  0  0
 62 65  1  0  0  0  0
 55 66  1  0  0  0  0
 57 66  1  0  0  0  0
 60 66  1  0  0  0  0
 61 66  1  0  0  0  0
 63 66  1  0  0  0  0
 58 67  1  0  0  0  0
 64 67  1  0  0  0  0
 56 68  1  0  0  0  0
 62 68  1  0  0  0  0
 65 68  1  0  0  0  0
 57 69  1  0  0  0  0
 63 69  1  0  0  0  0
 66 69  1  0  0  0  0
 58 70  1  0  0  0  0
 64 70  1  0  0  0  0
 67 70  1  0  0  0  0
 58 71  1  0  0  0  0
 64 71  1  0  0  0  0
 67 71  1  0  0  0  0
 28 72  2  0  0  0  0
 54 73  2  0  0  0  0
 55 74  2  0  0  0  0
 56 75  2  0  0  0  0
 57 76  2  0  0  0  0
 58 77  1  0  0  0  0
 70 77  1  0  0  0  0
 58 78  1  0  0  0  0
 71 78  1  0  0  0  0
 59 79  2  0  0  0  0
 60 80  2  0  0  0  0
 61 81  2  0  0  0  0
 62 82  2  0  0  0  0
 63 83  2  0  0  0  0
 64 84  1  0  0  0  0
 70 84  1  0  0  0  0
 64 85  1  0  0  0  0
 71 85  1  0  0  0  0
M  END
