 xtb: 6.7.1pre (5071a88)
          08312621553D

 82 93  0     0  0            999 V2000
   -4.4082   -3.2047   10.1798 C   0  0  0  0  0  0  0  0  0  0  0  0
   -5.0605   -2.2826   11.0556 O   0  0  0  0  0  0  0  0  0  0  0  0
   -4.7093   -0.9972   10.7463 C   0  0  0  0  0  0  0  0  0  0  0  0
   -3.5151   -0.4917   11.2594 C   0  0  0  0  0  0  0  0  0  0  0  0
   -3.1492    0.8525   11.0333 C   0  0  0  0  0  0  0  0  0  0  0  0
   -1.9505    1.4204   11.5046 C   0  0  0  0  0  0  0  0  0  0  0  0
   -1.0983    0.6452   12.2641 O   0  0  0  0  0  0  0  0  0  0  0  0
    0.2021    0.5224   11.8278 C   0  0  0  0  0  0  0  0  0  0  0  0
    0.5537    0.3699   10.4857 C   0  0  0  0  0  0  0  0  0  0  0  0
    1.8976    0.2189   10.1231 C   0  0  0  0  0  0  0  0  0  0  0  0
    2.9008    0.2071   11.0963 C   0  0  0  0  0  0  0  0  0  0  0  0
    4.2727    0.0517   10.7895 N   0  0  0  0  0  0  0  0  0  0  0  0
    4.8707    0.0709    9.5474 C   0  0  0  0  0  0  0  0  0  0  0  0
    4.3186    0.3082    8.4807 O   0  0  0  0  0  0  0  0  0  0  0  0
    6.2271   -0.1964    9.6503 N   0  0  0  0  0  0  0  0  0  0  0  0
    7.0627   -0.2771    8.4904 C   0  0  0  0  0  0  0  0  0  0  0  0
    7.5074   -1.6110    7.9581 C   0  0  0  0  0  0  0  0  0  0  0  0
    8.5020   -0.6976    8.6123 C   0  0  0  0  0  0  0  0  0  0  0  0
    2.5248    0.3311   12.4475 C   0  0  0  0  0  0  0  0  0  0  0  0
    3.7130    0.3004   13.7083 Cl  0  0  0  0  0  0  0  0  0  0  0  0
    1.1856    0.4833   12.8130 C   0  0  0  0  0  0  0  0  0  0  0  0
   -1.6599    2.7615   11.2748 C   0  0  0  0  0  0  0  0  0  0  0  0
   -2.5689    3.4914   10.5403 C   0  0  0  0  0  0  0  0  0  0  0  0
   -3.7213    2.9832   10.0513 N   0  0  0  0  0  0  0  0  0  0  0  0
   -4.0074    1.6942   10.2968 C   0  0  0  0  0  0  0  0  0  0  0  0
   -5.1982    1.1763    9.8104 C   0  0  0  0  0  0  0  0  0  0  0  0
   -5.5664   -0.1577   10.0356 C   0  0  0  0  0  0  0  0  0  0  0  0
   -6.8475   -0.6561    9.4821 C   0  0  0  0  0  0  0  0  0  0  0  0
   -6.9446   -1.7344    8.9138 O   0  0  0  0  0  0  0  0  0  0  0  0
   -7.9299    0.1680    9.6319 N   0  0  0  0  0  0  0  0  0  0  0  0
   -4.8799   -4.1829   10.3116 H   0  0  0  0  0  0  0  0  0  0  0  0
   -4.5091   -2.9161    9.1276 H   0  0  0  0  0  0  0  0  0  0  0  0
   -3.3496   -3.2993   10.4439 H   0  0  0  0  0  0  0  0  0  0  0  0
   -2.8733   -1.1445   11.8470 H   0  0  0  0  0  0  0  0  0  0  0  0
   -0.2033    0.3553    9.7051 H   0  0  0  0  0  0  0  0  0  0  0  0
    2.1261    0.0995    9.0676 H   0  0  0  0  0  0  0  0  0  0  0  0
    4.8971    0.0774   11.5851 H   0  0  0  0  0  0  0  0  0  0  0  0
    6.5154   -0.7275   10.4597 H   0  0  0  0  0  0  0  0  0  0  0  0
    6.8482    0.4974    7.7555 H   0  0  0  0  0  0  0  0  0  0  0  0
    7.2057   -2.5064    8.4880 H   0  0  0  0  0  0  0  0  0  0  0  0
    7.5509   -1.7293    6.8812 H   0  0  0  0  0  0  0  0  0  0  0  0
    8.8859   -0.9774    9.5856 H   0  0  0  0  0  0  0  0  0  0  0  0
    9.2266   -0.1991    7.9781 H   0  0  0  0  0  0  0  0  0  0  0  0
    0.9057    0.5748   13.8589 H   0  0  0  0  0  0  0  0  0  0  0  0
   -0.7577    3.2245   11.6561 H   0  0  0  0  0  0  0  0  0  0  0  0
   -2.3964    4.5412   10.3188 H   0  0  0  0  0  0  0  0  0  0  0  0
   -5.8434    1.8292    9.2266 H   0  0  0  0  0  0  0  0  0  0  0  0
   -7.9264    0.9489   10.2735 H   0  0  0  0  0  0  0  0  0  0  0  0
   -8.8259   -0.2161    9.3600 H   0  0  0  0  0  0  0  0  0  0  0  0
   -2.1419   -3.0088    2.1197 Ti  0  0  0  0  0  0  0  0  0  0  0  0
    0.2890   -1.6948    1.4324 Ti  0  0  0  0  0  0  0  0  0  0  0  0
    1.9031   -3.0677   -0.7293 Ti  0  0  0  0  0  0  0  0  0  0  0  0
   -2.5215   -0.2519    1.3037 Ti  0  0  0  0  0  0  0  0  0  0  0  0
    2.1420    0.4995    2.2044 Ti  0  0  0  0  0  0  0  0  0  0  0  0
   -0.6814    0.1896    3.6812 Ti  0  0  0  0  0  0  0  0  0  0  0  0
   -2.0368   -3.0777   -1.2005 Ti  0  0  0  0  0  0  0  0  0  0  0  0
   -0.6053   -0.7709   -2.0351 Ti  0  0  0  0  0  0  0  0  0  0  0  0
    1.9455   -1.5873   -3.4124 Ti  0  0  0  0  0  0  0  0  0  0  0  0
   -1.8782    1.7466   -1.2400 Ti  0  0  0  0  0  0  0  0  0  0  0  0
    2.4125    0.4542   -0.7742 Ti  0  0  0  0  0  0  0  0  0  0  0  0
    0.8177    1.8385   -2.9400 Ti  0  0  0  0  0  0  0  0  0  0  0  0
   -3.6784    1.2814    0.6007 C   0  0  0  0  0  0  0  0  0  0  0  0
    4.1282    0.4828    0.3873 C   0  0  0  0  0  0  0  0  0  0  0  0
    0.4555    2.2672    0.3497 C   0  0  0  0  0  0  0  0  0  0  0  0
   -3.6667    2.1188   -0.3139 C   0  0  0  0  0  0  0  0  0  0  0  0
    4.1160    0.6322    1.6214 C   0  0  0  0  0  0  0  0  0  0  0  0
   -0.6352    2.7410   -0.1189 C   0  0  0  0  0  0  0  0  0  0  0  0
    1.6301    1.7810    0.7342 C   0  0  0  0  0  0  0  0  0  0  0  0
   -3.0935   -1.9569    1.0379 O   0  0  0  0  0  0  0  0  0  0  0  0
   -0.4872   -2.6058    2.7012 O   0  0  0  0  0  0  0  0  0  0  0  0
    0.3141   -2.8889    0.1450 O   0  0  0  0  0  0  0  0  0  0  0  0
   -0.8008   -0.4359    0.9712 O   0  0  0  0  0  0  0  0  0  0  0  0
    1.9029   -1.1583    1.4694 O   0  0  0  0  0  0  0  0  0  0  0  0
   -2.3227   -0.1139    3.0248 O   0  0  0  0  0  0  0  0  0  0  0  0
    1.0138    0.4416    3.5688 O   0  0  0  0  0  0  0  0  0  0  0  0
   -1.7720   -4.5879   -1.6528 O   0  0  0  0  0  0  0  0  0  0  0  0
    0.1906   -1.1892   -3.5340 O   0  0  0  0  0  0  0  0  0  0  0  0
    2.8314   -2.1702   -1.9180 O   0  0  0  0  0  0  0  0  0  0  0  0
   -2.0546   -0.2244   -1.3375 O   0  0  0  0  0  0  0  0  0  0  0  0
    0.7685   -0.3906   -1.0637 O   0  0  0  0  0  0  0  0  0  0  0  0
   -0.9000    1.6493   -2.8186 O   0  0  0  0  0  0  0  0  0  0  0  0
    2.4153    1.3575   -2.2641 O   0  0  0  0  0  0  0  0  0  0  0  0
  1  2  1  0  0  0  0
  2  3  1  0  0  0  0
  3  4  4  0  0  0  0
  4  5  4  0  0  0  0
  5  6  4  0  0  0  0
  6  7  1  0  0  0  0
  7  8  1  0  0  0  0
  8  9  4  0  0  0  0
  9 10  4  0  0  0  0
 10 11  4  0  0  0  0
 11 12  1  0  0  0  0
 12 13  1  0  0  0  0
 13 14  2  0  0  0  0
 13 15  1  0  0  0  0
 15 16  1  0  0  0  0
 16 17  1  0  0  0  0
 16 18  1  0  0  0  0
 17 18  1  0  0  0  0
 11 19  4  0  0  0  0
 19 20  1  0  0  0  0
  8 21  4  0  0  0  0
 19 21  4  0  0  0  0
  6 22  4  0  0  0  0
 22 23  4  0  0  0  0
 23 24  4  0  0  0  0
  5 25  4  0  0  0  0
 24 25  4  0  0  0  0
 25 26  4  0  0  0  0
  3 27  4  0  0  0  0
 26 27  4  0  0  0  0
 27 28  1  0  0  0  0
 28 29  2  0  0  0  0
 28 30  4  0  0  0  0
  1 31  1  0  0  0  0
  1 32  1  0  0  0  0
  1 33  1  0  0  0  0
  4 34  1  0  0  0  0
  9 35  1  0  0  0  0
 10 36  1  0  0  0  0
 12 37  1  0  0  0  0
 15 38  1  0  0  0  0
 16 39  1  0  0  0  0
 17 40  1  0  0  0  0
 17 41  1  0  0  0  0
 18 42  1  0  0  0  0
 18 43  1  0  0  0  0
 21 44  1  0  0  0  0
 22 45  1  0  0  0  0
 23 46  1  0  0  0  0
 26 47  1  0  0  0  0
 30 48  1  0  0  0  0
 30 49  1  0  0  0  0
 50 56  1  0  0  0  0
 56 57  1  0  0  0  0
 52 58  1  0  0  0  0
 53 62  1  0  0  0  0
 60 63  1  0  0  0  0
 59 65  1  0  0  0  0
 62 65  3  0  0  0  0
 54 66  1  0  0  0  0
 63 66  3  0  0  0  0
 59 67  1  0  0  0  0
 64 67  2  0  0  0  0
 54 68  1  0  0  0  0
 60 68  1  0  0  0  0
 64 68  2  0  0  0  0
 50 69  1  0  0  0  0
 53 69  1  0  0  0  0
 50 70  1  0  0  0  0
 51 70  1  0  0  0  0
 51 71  1  0  0  0  0
 52 71  1  0  0  0  0
 51 72  1  0  0  0  0
 53 72  1  0  0  0  0
 51 73  1  0  0  0  0
 54 73  1  0  0  0  0
 53 74  1  0  0  0  0
 55 74  1  0  0  0  0
 54 75  1  0  0  0  0
 55 75  1  0  0  0  0
 56 76  2  0  0  0  0
 57 77  1  0  0  0  0
 58 77  1  0  0  0  0
 52 78  1  0  0  0  0
 58 78  1  0  0  0  0
 57 79  1  0  0  0  0
 59 79  1  0  0  0  0
 57 80  1  0  0  0  0
 60 80  1  0  0  0  0
 59 81  1  0  0  0  0
 61 81  1  0  0  0  0
 60 82  1  0  0  0  0
 61 82  1  0  0  0  0
M  END
