 xtb: 6.7.1pre (5071a88)
          08312620373D

 82 97  0     0  0            999 V2000
   -8.0315    0.3129    5.7050 C   0  0  0  0  0  0  0  0  0  0  0  0
   -6.9733   -0.0473    6.5955 O   0  0  0  0  0  0  0  0  0  0  0  0
   -5.7562    0.2258    6.0300 C   0  0  0  0  0  0  0  0  0  0  0  0
   -5.2699    1.5360    6.0885 C   0  0  0  0  0  0  0  0  0  0  0  0
   -4.0134    1.8692    5.6036 C   0  0  0  0  0  0  0  0  0  0  0  0
   -3.6115    3.1497    5.6720 N   0  0  0  0  0  0  0  0  0  0  0  0
   -2.3957    3.4720    5.1802 C   0  0  0  0  0  0  0  0  0  0  0  0
   -1.5277    2.5579    4.6245 C   0  0  0  0  0  0  0  0  0  0  0  0
   -1.9351    1.2280    4.5870 C   0  0  0  0  0  0  0  0  0  0  0  0
   -1.1218    0.2677    4.0199 O   0  0  0  0  0  0  0  0  0  0  0  0
    0.1395    0.1200    4.5527 C   0  0  0  0  0  0  0  0  0  0  0  0
    1.1758   -0.1089    3.6493 C   0  0  0  0  0  0  0  0  0  0  0  0
    2.4844   -0.2974    4.1074 C   0  0  0  0  0  0  0  0  0  0  0  0
    2.7682   -0.2701    5.4756 C   0  0  0  0  0  0  0  0  0  0  0  0
    4.0686   -0.4583    5.9984 N   0  0  0  0  0  0  0  0  0  0  0  0
    5.2604   -0.5133    5.3074 C   0  0  0  0  0  0  0  0  0  0  0  0
    5.4111   -0.3355    4.1055 O   0  0  0  0  0  0  0  0  0  0  0  0
    6.3135   -0.7868    6.1664 N   0  0  0  0  0  0  0  0  0  0  0  0
    7.6537   -0.9225    5.6820 C   0  0  0  0  0  0  0  0  0  0  0  0
    8.6182    0.2258    5.7870 C   0  0  0  0  0  0  0  0  0  0  0  0
    8.8083   -0.9907    6.6440 C   0  0  0  0  0  0  0  0  0  0  0  0
    1.7045   -0.0686    6.3766 C   0  0  0  0  0  0  0  0  0  0  0  0
    1.9800   -0.0528    8.0875 Cl  0  0  0  0  0  0  0  0  0  0  0  0
    0.3965    0.1213    5.9231 C   0  0  0  0  0  0  0  0  0  0  0  0
   -3.2063    0.8492    5.0592 C   0  0  0  0  0  0  0  0  0  0  0  0
   -3.6876   -0.4790    5.0172 C   0  0  0  0  0  0  0  0  0  0  0  0
   -4.9590   -0.7926    5.5098 C   0  0  0  0  0  0  0  0  0  0  0  0
   -5.4449   -2.1903    5.4336 C   0  0  0  0  0  0  0  0  0  0  0  0
   -6.5632   -2.4775    5.0319 O   0  0  0  0  0  0  0  0  0  0  0  0
   -4.5595   -3.1563    5.8293 N   0  0  0  0  0  0  0  0  0  0  0  0
   -8.9590   -0.1150    6.0967 H   0  0  0  0  0  0  0  0  0  0  0  0
   -7.8723   -0.0842    4.6962 H   0  0  0  0  0  0  0  0  0  0  0  0
   -8.1485    1.4011    5.6679 H   0  0  0  0  0  0  0  0  0  0  0  0
   -5.8833    2.3168    6.5320 H   0  0  0  0  0  0  0  0  0  0  0  0
   -2.1352    4.5249    5.2462 H   0  0  0  0  0  0  0  0  0  0  0  0
   -0.5690    2.8741    4.2309 H   0  0  0  0  0  0  0  0  0  0  0  0
    0.9725   -0.1378    2.5810 H   0  0  0  0  0  0  0  0  0  0  0  0
    3.2598   -0.4722    3.3669 H   0  0  0  0  0  0  0  0  0  0  0  0
    4.1429   -0.3901    7.0052 H   0  0  0  0  0  0  0  0  0  0  0  0
    6.0796   -1.3076    7.0002 H   0  0  0  0  0  0  0  0  0  0  0  0
    7.7260   -1.5404    4.7886 H   0  0  0  0  0  0  0  0  0  0  0  0
    8.2772    1.1394    6.2595 H   0  0  0  0  0  0  0  0  0  0  0  0
    9.2996    0.3836    4.9589 H   0  0  0  0  0  0  0  0  0  0  0  0
    9.6290   -1.6563    6.4021 H   0  0  0  0  0  0  0  0  0  0  0  0
    8.6138   -0.8921    7.7051 H   0  0  0  0  0  0  0  0  0  0  0  0
   -0.4087    0.2611    6.6383 H   0  0  0  0  0  0  0  0  0  0  0  0
   -3.0747   -1.2635    4.5773 H   0  0  0  0  0  0  0  0  0  0  0  0
   -3.7432   -2.9346    6.3819 H   0  0  0  0  0  0  0  0  0  0  0  0
   -4.9326   -4.0948    5.8990 H   0  0  0  0  0  0  0  0  0  0  0  0
   -3.0000   -2.6000    1.2500 Ti  0  0  0  0  0  0  0  0  0  0  0  0
    0.0000   -2.6000    1.2500 Ti  0  0  0  0  0  0  0  0  0  0  0  0
    3.0000   -2.6000    1.2500 Ti  0  0  0  0  0  0  0  0  0  0  0  0
   -1.5000    0.0000    1.2500 Ti  0  0  0  0  0  0  0  0  0  0  0  0
    1.5000    0.0000    1.2500 Ti  0  0  0  0  0  0  0  0  0  0  0  0
    0.0000    2.6000    1.2500 Ti  0  0  0  0  0  0  0  0  0  0  0  0
   -3.0000   -2.6000   -1.2500 Ti  0  0  0  0  0  0  0  0  0  0  0  0
    0.0000   -2.6000   -1.2500 Ti  0  0  0  0  0  0  0  0  0  0  0  0
    3.0000   -2.6000   -1.2500 Ti  0  0  0  0  0  0  0  0  0  0  0  0
   -1.5000    0.0000   -1.2500 Ti  0  0  0  0  0  0  0  0  0  0  0  0
    1.5000    0.0000   -1.2500 Ti  0  0  0  0  0  0  0  0  0  0  0  0
    0.0000    2.6000   -1.2500 Ti  0  0  0  0  0  0  0  0  0  0  0  0
   -1.5000   -1.3000    0.0000 C   0  0  0  0  0  0  0  0  0  0  0  0
    1.5000   -1.3000    0.0000 C   0  0  0  0  0  0  0  0  0  0  0  0
    0.0000    1.3000    0.0000 C   0  0  0  0  0  0  0  0  0  0  0  0
   -3.0000    0.0000    0.0000 C   0  0  0  0  0  0  0  0  0  0  0  0
    3.0000    0.0000    0.0000 C   0  0  0  0  0  0  0  0  0  0  0  0
   -1.5000    2.6000    0.0000 C   0  0  0  0  0  0  0  0  0  0  0  0
    1.5000    2.6000    0.0000 C   0  0  0  0  0  0  0  0  0  0  0  0
   -3.0000   -2.6000    2.4500 O   0  0  0  0  0  0  0  0  0  0  0  0
    0.0000   -2.6000    2.4500 O   0  0  0  0  0  0  0  0  0  0  0  0
    3.0000   -2.6000    2.4500 O   0  0  0  0  0  0  0  0  0  0  0  0
   -1.5000    0.0000    2.4500 O   0  0  0  0  0  0  0  0  0  0  0  0
    1.5000    0.0000    2.4500 O   0  0  0  0  0  0  0  0  0  0  0  0
   -1.5000    2.6000    2.4500 O   0  0  0  0  0  0  0  0  0  0  0  0
    1.5000    2.6000    2.4500 O   0  0  0  0  0  0  0  0  0  0  0  0
   -3.0000   -2.6000   -2.4500 O   0  0  0  0  0  0  0  0  0  0  0  0
    0.0000   -2.6000   -2.4500 O   0  0  0  0  0  0  0  0  0  0  0  0
    3.0000   -2.6000   -2.4500 O   0  0  0  0  0  0  0  0  0  0  0  0
   -1.5000    0.0000   -2.4500 O   0  0  0  0  0  0  0  0  0  0  0  0
    1.5000    0.0000   -2.4500 O   0  0  0  0  0  0  0  0  0  0  0  0
   -1.5000    2.6000   -2.4500 O   0  0  0  0  0  0  0  0  0  0  0  0
    1.5000    2.6000   -2.4500 O   0  0  0  0  0  0  0  0  0  0  0  0
  1  2  1  0  0  0  0
  2  3  1  0  0  0  0
  3  4  4  0  0  0  0
  4  5  4  0  0  0  0
  5  6  4  0  0  0  0
  6  7  4  0  0  0  0
  7  8  4  0  0  0  0
  8  9  4  0  0  0  0
  9 10  1  0  0  0  0
 10 11  1  0  0  0  0
 11 12  4  0  0  0  0
 12 13  4  0  0  0  0
 13 14  4  0  0  0  0
 14 15  1  0  0  0  0
 15 16  1  0  0  0  0
 16 17  2  0  0  0  0
 16 18  1  0  0  0  0
 18 19  1  0  0  0  0
 19 20  1  0  0  0  0
 19 21  1  0  0  0  0
 20 21  1  0  0  0  0
 14 22  4  0  0  0  0
 22 23  1  0  0  0  0
 11 24  4  0  0  0  0
 22 24  4  0  0  0  0
  5 25  1  0  0  0  0
  9 25  4  0  0  0  0
 25 26  4  0  0  0  0
  3 27  4  0  0  0  0
 26 27  4  0  0  0  0
 27 28  1  0  0  0  0
 28 29  2  0  0  0  0
 28 30  4  0  0  0  0
  1 31  1  0  0  0  0
  1 32  1  0  0  0  0
  1 33  1  0  0  0  0
  4 34  1  0  0  0  0
  7 35  1  0  0  0  0
  8 36  1  0  0  0  0
 13 38  1  0  0  0  0
 15 39  1  0  0  0  0
 18 40  1  0  0  0  0
 19 41  1  0  0  0  0
 20 42  1  0  0  0  0
 20 43  1  0  0  0  0
 21 44  1  0  0  0  0
 21 45  1  0  0  0  0
 24 46  1  0  0  0  0
 26 47  1  0  0  0  0
 30 48  1  0  0  0  0
 30 49  1  0  0  0  0
 50 51  1  0  0  0  0
 51 52  1  0  0  0  0
 50 56  1  0  0  0  0
 51 57  1  0  0  0  0
 56 57  1  0  0  0  0
 52 58  1  0  0  0  0
 57 58  1  0  0  0  0
 54 60  1  0  0  0  0
 53 62  1  0  0  0  0
 59 62  1  0  0  0  0
 54 63  1  0  0  0  0
 60 63  1  0  0  0  0
 55 64  1  0  0  0  0
 61 64  1  0  0  0  0
 53 65  1  0  0  0  0
 59 65  1  0  0  0  0
 62 65  1  0  0  0  0
 54 66  2  0  0  0  0
 60 66  1  0  0  0  0
 63 66  1  0  0  0  0
 55 67  1  0  0  0  0
 61 67  1  0  0  0  0
 64 67  1  0  0  0  0
 55 68  1  0  0  0  0
 61 68  1  0  0  0  0
 64 68  1  0  0  0  0
 50 69  2  0  0  0  0
 51 70  2  0  0  0  0
 52 71  2  0  0  0  0
 53 72  2  0  0  0  0
 12 73  1  0  0  0  0
 37 73  1  0  0  0  0
 54 73  1  0  0  0  0
 55 74  1  0  0  0  0
 67 74  1  0  0  0  0
 55 75  1  0  0  0  0
 68 75  1  0  0  0  0
 56 76  2  0  0  0  0
 57 77  2  0  0  0  0
 58 78  2  0  0  0  0
 59 79  2  0  0  0  0
 60 80  2  0  0  0  0
 61 81  1  0  0  0  0
 67 81  1  0  0  0  0
 61 82  1  0  0  0  0
 68 82  1  0  0  0  0
M  END
