 xtb: 6.7.1pre (5071a88)
          08312621193D

 82 93  0     0  0            999 V2000
   -8.0315    0.3129   10.3052 C   0  0  0  0  0  0  0  0  0  0  0  0
   -6.9733   -0.0473   11.1958 O   0  0  0  0  0  0  0  0  0  0  0  0
   -5.7562    0.2258   10.6303 C   0  0  0  0  0  0  0  0  0  0  0  0
   -5.2699    1.5360   10.6888 C   0  0  0  0  0  0  0  0  0  0  0  0
   -4.0134    1.8692   10.2039 C   0  0  0  0  0  0  0  0  0  0  0  0
   -3.6115    3.1497   10.2723 N   0  0  0  0  0  0  0  0  0  0  0  0
   -2.3957    3.4720    9.7805 C   0  0  0  0  0  0  0  0  0  0  0  0
   -1.5277    2.5579    9.2248 C   0  0  0  0  0  0  0  0  0  0  0  0
   -1.9351    1.2280    9.1872 C   0  0  0  0  0  0  0  0  0  0  0  0
   -1.1218    0.2677    8.6202 O   0  0  0  0  0  0  0  0  0  0  0  0
    0.1395    0.1200    9.1529 C   0  0  0  0  0  0  0  0  0  0  0  0
    1.1758   -0.1089    8.2495 C   0  0  0  0  0  0  0  0  0  0  0  0
    2.4844   -0.2974    8.7077 C   0  0  0  0  0  0  0  0  0  0  0  0
    2.7682   -0.2701   10.0758 C   0  0  0  0  0  0  0  0  0  0  0  0
    4.0686   -0.4583   10.5987 N   0  0  0  0  0  0  0  0  0  0  0  0
    5.2604   -0.5133    9.9076 C   0  0  0  0  0  0  0  0  0  0  0  0
    5.4111   -0.3355    8.7058 O   0  0  0  0  0  0  0  0  0  0  0  0
    6.3135   -0.7868   10.7667 N   0  0  0  0  0  0  0  0  0  0  0  0
    7.6537   -0.9225   10.2822 C   0  0  0  0  0  0  0  0  0  0  0  0
    8.6182    0.2258   10.3872 C   0  0  0  0  0  0  0  0  0  0  0  0
    8.8083   -0.9907   11.2443 C   0  0  0  0  0  0  0  0  0  0  0  0
    1.7045   -0.0686   10.9769 C   0  0  0  0  0  0  0  0  0  0  0  0
    1.9800   -0.0528   12.6878 Cl  0  0  0  0  0  0  0  0  0  0  0  0
    0.3965    0.1213   10.5234 C   0  0  0  0  0  0  0  0  0  0  0  0
   -3.2063    0.8492    9.6594 C   0  0  0  0  0  0  0  0  0  0  0  0
   -3.6876   -0.4790    9.6174 C   0  0  0  0  0  0  0  0  0  0  0  0
   -4.9590   -0.7926   10.1101 C   0  0  0  0  0  0  0  0  0  0  0  0
   -5.4449   -2.1903   10.0338 C   0  0  0  0  0  0  0  0  0  0  0  0
   -6.5632   -2.4775    9.6321 O   0  0  0  0  0  0  0  0  0  0  0  0
   -4.5595   -3.1563   10.4296 N   0  0  0  0  0  0  0  0  0  0  0  0
   -8.9590   -0.1150   10.6969 H   0  0  0  0  0  0  0  0  0  0  0  0
   -7.8723   -0.0842    9.2964 H   0  0  0  0  0  0  0  0  0  0  0  0
   -8.1485    1.4011   10.2682 H   0  0  0  0  0  0  0  0  0  0  0  0
   -5.8833    2.3168   11.1322 H   0  0  0  0  0  0  0  0  0  0  0  0
   -2.1352    4.5249    9.8464 H   0  0  0  0  0  0  0  0  0  0  0  0
   -0.5690    2.8741    8.8312 H   0  0  0  0  0  0  0  0  0  0  0  0
    0.9725   -0.1378    7.1812 H   0  0  0  0  0  0  0  0  0  0  0  0
    3.2598   -0.4722    7.9671 H   0  0  0  0  0  0  0  0  0  0  0  0
    4.1429   -0.3901   11.6054 H   0  0  0  0  0  0  0  0  0  0  0  0
    6.0796   -1.3076   11.6004 H   0  0  0  0  0  0  0  0  0  0  0  0
    7.7260   -1.5404    9.3888 H   0  0  0  0  0  0  0  0  0  0  0  0
    8.2772    1.1394   10.8598 H   0  0  0  0  0  0  0  0  0  0  0  0
    9.2996    0.3836    9.5592 H   0  0  0  0  0  0  0  0  0  0  0  0
    9.6290   -1.6563   11.0023 H   0  0  0  0  0  0  0  0  0  0  0  0
    8.6138   -0.8921   12.3053 H   0  0  0  0  0  0  0  0  0  0  0  0
   -0.4087    0.2611   11.2386 H   0  0  0  0  0  0  0  0  0  0  0  0
   -3.0747   -1.2635    9.1775 H   0  0  0  0  0  0  0  0  0  0  0  0
   -3.7432   -2.9346   10.9822 H   0  0  0  0  0  0  0  0  0  0  0  0
   -4.9326   -4.0948   10.4992 H   0  0  0  0  0  0  0  0  0  0  0  0
   -2.1419   -3.0088    2.1197 Ti  0  0  0  0  0  0  0  0  0  0  0  0
    0.2890   -1.6948    1.4324 Ti  0  0  0  0  0  0  0  0  0  0  0  0
    1.9031   -3.0677   -0.7293 Ti  0  0  0  0  0  0  0  0  0  0  0  0
   -2.5215   -0.2519    1.3037 Ti  0  0  0  0  0  0  0  0  0  0  0  0
    2.1420    0.4995    2.2044 Ti  0  0  0  0  0  0  0  0  0  0  0  0
   -0.6814    0.1896    3.6812 Ti  0  0  0  0  0  0  0  0  0  0  0  0
   -2.0368   -3.0777   -1.2005 Ti  0  0  0  0  0  0  0  0  0  0  0  0
   -0.6053   -0.7709   -2.0351 Ti  0  0  0  0  0  0  0  0  0  0  0  0
    1.9455   -1.5873   -3.4124 Ti  0  0  0  0  0  0  0  0  0  0  0  0
   -1.8782    1.7466   -1.2400 Ti  0  0  0  0  0  0  0  0  0  0  0  0
    2.4125    0.4542   -0.7742 Ti  0  0  0  0  0  0  0  0  0  0  0  0
    0.8177    1.8385   -2.9400 Ti  0  0  0  0  0  0  0  0  0  0  0  0
   -3.6784    1.2814    0.6007 C   0  0  0  0  0  0  0  0  0  0  0  0
    4.1282    0.4828    0.3873 C   0  0  0  0  0  0  0  0  0  0  0  0
    0.4555    2.2672    0.3497 C   0  0  0  0  0  0  0  0  0  0  0  0
   -3.6667    2.1188   -0.3139 C   0  0  0  0  0  0  0  0  0  0  0  0
    4.1160    0.6322    1.6214 C   0  0  0  0  0  0  0  0  0  0  0  0
   -0.6352    2.7410   -0.1189 C   0  0  0  0  0  0  0  0  0  0  0  0
    1.6301    1.7810    0.7342 C   0  0  0  0  0  0  0  0  0  0  0  0
   -3.0935   -1.9569    1.0379 O   0  0  0  0  0  0  0  0  0  0  0  0
   -0.4872   -2.6058    2.7012 O   0  0  0  0  0  0  0  0  0  0  0  0
    0.3141   -2.8889    0.1450 O   0  0  0  0  0  0  0  0  0  0  0  0
   -0.8008   -0.4359    0.9712 O   0  0  0  0  0  0  0  0  0  0  0  0
    1.9029   -1.1583    1.4694 O   0  0  0  0  0  0  0  0  0  0  0  0
   -2.3227   -0.1139    3.0248 O   0  0  0  0  0  0  0  0  0  0  0  0
    1.0138    0.4416    3.5688 O   0  0  0  0  0  0  0  0  0  0  0  0
   -1.7720   -4.5879   -1.6528 O   0  0  0  0  0  0  0  0  0  0  0  0
    0.1906   -1.1892   -3.5340 O   0  0  0  0  0  0  0  0  0  0  0  0
    2.8314   -2.1702   -1.9180 O   0  0  0  0  0  0  0  0  0  0  0  0
   -2.0546   -0.2244   -1.3375 O   0  0  0  0  0  0  0  0  0  0  0  0
    0.7685   -0.3906   -1.0637 O   0  0  0  0  0  0  0  0  0  0  0  0
   -0.9000    1.6493   -2.8186 O   0  0  0  0  0  0  0  0  0  0  0  0
    2.4153    1.3575   -2.2641 O   0  0  0  0  0  0  0  0  0  0  0  0
  1  2  1  0  0  0  0
  2  3  1  0  0  0  0
  3  4  4  0  0  0  0
  4  5  4  0  0  0  0
  5  6  4  0  0  0  0
  6  7  4  0  0  0  0
  7  8  4  0  0  0  0
  8  9  4  0  0  0  0
  9 10  1  0  0  0  0
 10 11  1  0  0  0  0
 11 12  4  0  0  0  0
 12 13  4  0  0  0  0
 13 14  4  0  0  0  0
 14 15  1  0  0  0  0
 15 16  1  0  0  0  0
 16 17  2  0  0  0  0
 16 18  1  0  0  0  0
 18 19  1  0  0  0  0
 19 20  1  0  0  0  0
 19 21  1  0  0  0  0
 20 21  1  0  0  0  0
 14 22  4  0  0  0  0
 22 23  1  0  0  0  0
 11 24  4  0  0  0  0
 22 24  4  0  0  0  0
  5 25  4  0  0  0  0
  9 25  4  0  0  0  0
 25 26  4  0  0  0  0
  3 27  4  0  0  0  0
 26 27  4  0  0  0  0
 27 28  1  0  0  0  0
 28 29  2  0  0  0  0
 28 30  4  0  0  0  0
  1 31  1  0  0  0  0
  1 32  1  0  0  0  0
  1 33  1  0  0  0  0
  4 34  1  0  0  0  0
  7 35  1  0  0  0  0
  8 36  1  0  0  0  0
 12 37  1  0  0  0  0
 13 38  1  0  0  0  0
 15 39  1  0  0  0  0
 18 40  1  0  0  0  0
 19 41  1  0  0  0  0
 20 42  1  0  0  0  0
 20 43  1  0  0  0  0
 21 44  1  0  0  0  0
 21 45  1  0  0  0  0
 24 46  1  0  0  0  0
 26 47  1  0  0  0  0
 30 48  1  0  0  0  0
 30 49  1  0  0  0  0
 50 56  1  0  0  0  0
 56 57  1  0  0  0  0
 52 58  1  0  0  0  0
 53 62  1  0  0  0  0
 60 63  1  0  0  0  0
 59 65  1  0  0  0  0
 62 65  3  0  0  0  0
 54 66  1  0  0  0  0
 63 66  3  0  0  0  0
 59 67  1  0  0  0  0
 64 67  2  0  0  0  0
 54 68  1  0  0  0  0
 60 68  1  0  0  0  0
 64 68  2  0  0  0  0
 50 69  1  0  0  0  0
 53 69  1  0  0  0  0
 50 70  1  0  0  0  0
 51 70  1  0  0  0  0
 51 71  1  0  0  0  0
 52 71  1  0  0  0  0
 51 72  1  0  0  0  0
 53 72  1  0  0  0  0
 51 73  1  0  0  0  0
 54 73  1  0  0  0  0
 53 74  1  0  0  0  0
 55 74  1  0  0  0  0
 54 75  1  0  0  0  0
 55 75  1  0  0  0  0
 56 76  2  0  0  0  0
 57 77  1  0  0  0  0
 58 77  1  0  0  0  0
 52 78  1  0  0  0  0
 58 78  1  0  0  0  0
 57 79  1  0  0  0  0
 59 79  1  0  0  0  0
 57 80  1  0  0  0  0
 60 80  1  0  0  0  0
 59 81  1  0  0  0  0
 61 81  1  0  0  0  0
 60 82  1  0  0  0  0
 61 82  1  0  0  0  0
M  END
