 xtb: 6.7.1pre (5071a88)
          08312621193D

 81 91  0     0  0            999 V2000
    7.0902   -3.3874   11.0664 C   0  0  0  0  0  0  0  0  0  0  0  0
    6.7277   -2.2555   10.2588 N   0  0  0  0  0  0  0  0  0  0  0  0
    5.6899   -1.4107   10.5917 C   0  0  0  0  0  0  0  0  0  0  0  0
    4.9304   -1.5917   11.5362 O   0  0  0  0  0  0  0  0  0  0  0  0
    5.5629   -0.2122    9.6996 C   0  0  0  0  0  0  0  0  0  0  0  0
    4.5279    0.6874    9.8993 C   0  0  0  0  0  0  0  0  0  0  0  0
    4.4597    1.7836    9.0460 C   0  0  0  0  0  0  0  0  0  0  0  0
    3.5041    2.7674    9.1666 O   0  0  0  0  0  0  0  0  0  0  0  0
    2.2046    2.3560    9.3476 C   0  0  0  0  0  0  0  0  0  0  0  0
    1.4943    2.9157   10.4057 C   0  0  0  0  0  0  0  0  0  0  0  0
    0.1604    2.5543   10.6145 C   0  0  0  0  0  0  0  0  0  0  0  0
   -0.4772    1.6434    9.7600 C   0  0  0  0  0  0  0  0  0  0  0  0
   -1.8268    1.3387   10.0369 N   0  0  0  0  0  0  0  0  0  0  0  0
   -2.6205    0.3802    9.4219 C   0  0  0  0  0  0  0  0  0  0  0  0
   -2.2355   -0.4181    8.5788 O   0  0  0  0  0  0  0  0  0  0  0  0
   -3.9227    0.4611    9.9000 N   0  0  0  0  0  0  0  0  0  0  0  0
   -4.9969   -0.4038    9.6062 C   0  0  0  0  0  0  0  0  0  0  0  0
   -4.8627   -1.6086    8.9194 C   0  0  0  0  0  0  0  0  0  0  0  0
   -5.9801   -2.4140    8.6776 C   0  0  0  0  0  0  0  0  0  0  0  0
   -7.2447   -2.0264    9.1245 C   0  0  0  0  0  0  0  0  0  0  0  0
   -8.5704   -3.0770    8.7850 Cl  0  0  0  0  0  0  0  0  0  0  0  0
   -7.4059   -0.8268    9.8233 C   0  0  0  0  0  0  0  0  0  0  0  0
   -8.7536   -0.3821   10.3219 C   0  0  0  0  0  0  0  0  0  0  0  0
   -9.6621   -0.2031    9.3250 F   0  0  0  0  0  0  0  0  0  0  0  0
   -9.3118   -1.2528   11.2062 F   0  0  0  0  0  0  0  0  0  0  0  0
   -8.7045    0.8141   10.9807 F   0  0  0  0  0  0  0  0  0  0  0  0
   -6.2681   -0.0256   10.0592 C   0  0  0  0  0  0  0  0  0  0  0  0
    0.2385    1.1137    8.6835 C   0  0  0  0  0  0  0  0  0  0  0  0
    1.5751    1.4709    8.4733 C   0  0  0  0  0  0  0  0  0  0  0  0
    5.4268    1.9649    8.0622 C   0  0  0  0  0  0  0  0  0  0  0  0
    6.4217    1.0109    7.9402 C   0  0  0  0  0  0  0  0  0  0  0  0
    6.5163   -0.0789    8.7308 N   0  0  0  0  0  0  0  0  0  0  0  0
    6.1998   -3.8525   11.4974 H   0  0  0  0  0  0  0  0  0  0  0  0
    7.7464   -3.0443   11.8704 H   0  0  0  0  0  0  0  0  0  0  0  0
    7.6214   -4.1066   10.4388 H   0  0  0  0  0  0  0  0  0  0  0  0
    7.3440   -1.9310    9.5176 H   0  0  0  0  0  0  0  0  0  0  0  0
    3.8101    0.5352   10.6975 H   0  0  0  0  0  0  0  0  0  0  0  0
    1.9777    3.6251   11.0716 H   0  0  0  0  0  0  0  0  0  0  0  0
   -0.3688    2.9966   11.4543 H   0  0  0  0  0  0  0  0  0  0  0  0
   -2.2110    1.7671   10.8645 H   0  0  0  0  0  0  0  0  0  0  0  0
   -4.1546    1.3102   10.3921 H   0  0  0  0  0  0  0  0  0  0  0  0
   -3.8990   -1.9600    8.5617 H   0  0  0  0  0  0  0  0  0  0  0  0
   -5.8488   -3.3494    8.1370 H   0  0  0  0  0  0  0  0  0  0  0  0
   -6.3897    0.9102   10.6040 H   0  0  0  0  0  0  0  0  0  0  0  0
   -0.2163    0.4236    7.9794 H   0  0  0  0  0  0  0  0  0  0  0  0
    2.1078    1.0568    7.6218 H   0  0  0  0  0  0  0  0  0  0  0  0
    5.4003    2.8270    7.4050 H   0  0  0  0  0  0  0  0  0  0  0  0
    7.1938    1.1045    7.1812 H   0  0  0  0  0  0  0  0  0  0  0  0
   -2.1419   -3.0088    2.1197 Ti  0  0  0  0  0  0  0  0  0  0  0  0
    0.2890   -1.6948    1.4324 Ti  0  0  0  0  0  0  0  0  0  0  0  0
    1.9031   -3.0677   -0.7293 Ti  0  0  0  0  0  0  0  0  0  0  0  0
   -2.5215   -0.2519    1.3037 Ti  0  0  0  0  0  0  0  0  0  0  0  0
    2.1420    0.4995    2.2044 Ti  0  0  0  0  0  0  0  0  0  0  0  0
   -0.6814    0.1896    3.6812 Ti  0  0  0  0  0  0  0  0  0  0  0  0
   -2.0368   -3.0777   -1.2005 Ti  0  0  0  0  0  0  0  0  0  0  0  0
   -0.6053   -0.7709   -2.0351 Ti  0  0  0  0  0  0  0  0  0  0  0  0
    1.9455   -1.5873   -3.4124 Ti  0  0  0  0  0  0  0  0  0  0  0  0
   -1.8782    1.7466   -1.2400 Ti  0  0  0  0  0  0  0  0  0  0  0  0
    2.4125    0.4542   -0.7742 Ti  0  0  0  0  0  0  0  0  0  0  0  0
    0.8177    1.8385   -2.9400 Ti  0  0  0  0  0  0  0  0  0  0  0  0
   -3.6784    1.2814    0.6007 C   0  0  0  0  0  0  0  0  0  0  0  0
    4.1282    0.4828    0.3873 C   0  0  0  0  0  0  0  0  0  0  0  0
    0.4555    2.2672    0.3497 C   0  0  0  0  0  0  0  0  0  0  0  0
   -3.6667    2.1188   -0.3139 C   0  0  0  0  0  0  0  0  0  0  0  0
    4.1160    0.6322    1.6214 C   0  0  0  0  0  0  0  0  0  0  0  0
   -0.6352    2.7410   -0.1189 C   0  0  0  0  0  0  0  0  0  0  0  0
    1.6301    1.7810    0.7342 C   0  0  0  0  0  0  0  0  0  0  0  0
   -3.0935   -1.9569    1.0379 O   0  0  0  0  0  0  0  0  0  0  0  0
   -0.4872   -2.6058    2.7012 O   0  0  0  0  0  0  0  0  0  0  0  0
    0.3141   -2.8889    0.1450 O   0  0  0  0  0  0  0  0  0  0  0  0
   -0.8008   -0.4359    0.9712 O   0  0  0  0  0  0  0  0  0  0  0  0
    1.9029   -1.1583    1.4694 O   0  0  0  0  0  0  0  0  0  0  0  0
   -2.3227   -0.1139    3.0248 O   0  0  0  0  0  0  0  0  0  0  0  0
    1.0138    0.4416    3.5688 O   0  0  0  0  0  0  0  0  0  0  0  0
   -1.7720   -4.5879   -1.6528 O   0  0  0  0  0  0  0  0  0  0  0  0
    0.1906   -1.1892   -3.5340 O   0  0  0  0  0  0  0  0  0  0  0  0
    2.8314   -2.1702   -1.9180 O   0  0  0  0  0  0  0  0  0  0  0  0
   -2.0546   -0.2244   -1.3375 O   0  0  0  0  0  0  0  0  0  0  0  0
    0.7685   -0.3906   -1.0637 O   0  0  0  0  0  0  0  0  0  0  0  0
   -0.9000    1.6493   -2.8186 O   0  0  0  0  0  0  0  0  0  0  0  0
    2.4153    1.3575   -2.2641 O   0  0  0  0  0  0  0  0  0  0  0  0
  1  2  1  0  0  0  0
  2  3  4  0  0  0  0
  3  4  2  0  0  0  0
  3  5  1  0  0  0  0
  5  6  4  0  0  0  0
  6  7  4  0  0  0  0
  7  8  1  0  0  0  0
  8  9  1  0  0  0  0
  9 10  4  0  0  0  0
 10 11  4  0  0  0  0
 11 12  4  0  0  0  0
 12 13  1  0  0  0  0
 13 14  1  0  0  0  0
 14 15  2  0  0  0  0
 14 16  1  0  0  0  0
 16 17  1  0  0  0  0
 17 18  4  0  0  0  0
 18 19  4  0  0  0  0
 19 20  4  0  0  0  0
 20 21  1  0  0  0  0
 20 22  4  0  0  0  0
 22 23  1  0  0  0  0
 23 24  1  0  0  0  0
 23 25  1  0  0  0  0
 23 26  1  0  0  0  0
 17 27  4  0  0  0  0
 22 27  4  0  0  0  0
 12 28  4  0  0  0  0
  9 29  4  0  0  0  0
 28 29  4  0  0  0  0
  7 30  4  0  0  0  0
 30 31  4  0  0  0  0
  5 32  4  0  0  0  0
 31 32  4  0  0  0  0
  1 33  1  0  0  0  0
  1 34  1  0  0  0  0
  1 35  1  0  0  0  0
  2 36  1  0  0  0  0
  6 37  1  0  0  0  0
 10 38  1  0  0  0  0
 11 39  1  0  0  0  0
 13 40  1  0  0  0  0
 16 41  1  0  0  0  0
 18 42  1  0  0  0  0
 19 43  1  0  0  0  0
 27 44  1  0  0  0  0
 28 45  1  0  0  0  0
 29 46  1  0  0  0  0
 30 47  1  0  0  0  0
 31 48  1  0  0  0  0
 49 55  1  0  0  0  0
 55 56  1  0  0  0  0
 51 57  1  0  0  0  0
 52 61  1  0  0  0  0
 59 62  1  0  0  0  0
 58 64  1  0  0  0  0
 61 64  3  0  0  0  0
 53 65  1  0  0  0  0
 62 65  3  0  0  0  0
 58 66  1  0  0  0  0
 63 66  2  0  0  0  0
 53 67  1  0  0  0  0
 59 67  1  0  0  0  0
 63 67  2  0  0  0  0
 49 68  1  0  0  0  0
 52 68  1  0  0  0  0
 49 69  1  0  0  0  0
 50 69  1  0  0  0  0
 50 70  1  0  0  0  0
 51 70  1  0  0  0  0
 50 71  1  0  0  0  0
 52 71  1  0  0  0  0
 50 72  1  0  0  0  0
 53 72  1  0  0  0  0
 52 73  1  0  0  0  0
 54 73  1  0  0  0  0
 53 74  1  0  0  0  0
 54 74  1  0  0  0  0
 55 75  2  0  0  0  0
 56 76  1  0  0  0  0
 57 76  1  0  0  0  0
 51 77  1  0  0  0  0
 57 77  1  0  0  0  0
 56 78  1  0  0  0  0
 58 78  1  0  0  0  0
 56 79  1  0  0  0  0
 59 79  1  0  0  0  0
 58 80  1  0  0  0  0
 60 80  1  0  0  0  0
 59 81  1  0  0  0  0
 60 81  1  0  0  0  0
M  END
