 xtb: 6.7.1pre (5071a88)
          08312620363D

 81 92  0     0  0            999 V2000
    7.0902   -3.3874    6.8900 C   0  0  0  0  0  0  0  0  0  0  0  0
    6.7277   -2.2555    6.0824 N   0  0  0  0  0  0  0  0  0  0  0  0
    5.6899   -1.4107    6.4154 C   0  0  0  0  0  0  0  0  0  0  0  0
    4.9304   -1.5917    7.3598 O   0  0  0  0  0  0  0  0  0  0  0  0
    5.5629   -0.2122    5.5232 C   0  0  0  0  0  0  0  0  0  0  0  0
    4.5279    0.6874    5.7229 C   0  0  0  0  0  0  0  0  0  0  0  0
    4.4597    1.7836    4.8696 C   0  0  0  0  0  0  0  0  0  0  0  0
    3.5041    2.7674    4.9902 O   0  0  0  0  0  0  0  0  0  0  0  0
    2.2046    2.3560    5.1713 C   0  0  0  0  0  0  0  0  0  0  0  0
    1.4943    2.9157    6.2293 C   0  0  0  0  0  0  0  0  0  0  0  0
    0.1604    2.5543    6.4381 C   0  0  0  0  0  0  0  0  0  0  0  0
   -0.4772    1.6434    5.5837 C   0  0  0  0  0  0  0  0  0  0  0  0
   -1.8268    1.3387    5.8605 N   0  0  0  0  0  0  0  0  0  0  0  0
   -2.6205    0.3802    5.2455 C   0  0  0  0  0  0  0  0  0  0  0  0
   -2.2355   -0.4181    4.4024 O   0  0  0  0  0  0  0  0  0  0  0  0
   -3.9227    0.4611    5.7236 N   0  0  0  0  0  0  0  0  0  0  0  0
   -4.9969   -0.4038    5.4298 C   0  0  0  0  0  0  0  0  0  0  0  0
   -4.8627   -1.6086    4.7430 C   0  0  0  0  0  0  0  0  0  0  0  0
   -5.9801   -2.4140    4.5012 C   0  0  0  0  0  0  0  0  0  0  0  0
   -7.2447   -2.0264    4.9481 C   0  0  0  0  0  0  0  0  0  0  0  0
   -8.5704   -3.0770    4.6086 Cl  0  0  0  0  0  0  0  0  0  0  0  0
   -7.4059   -0.8268    5.6470 C   0  0  0  0  0  0  0  0  0  0  0  0
   -8.7536   -0.3821    6.1455 C   0  0  0  0  0  0  0  0  0  0  0  0
   -9.6621   -0.2031    5.1486 F   0  0  0  0  0  0  0  0  0  0  0  0
   -9.3118   -1.2528    7.0298 F   0  0  0  0  0  0  0  0  0  0  0  0
   -8.7045    0.8141    6.8043 F   0  0  0  0  0  0  0  0  0  0  0  0
   -6.2681   -0.0256    5.8828 C   0  0  0  0  0  0  0  0  0  0  0  0
    0.2385    1.1137    4.5071 C   0  0  0  0  0  0  0  0  0  0  0  0
    1.5751    1.4709    4.2970 C   0  0  0  0  0  0  0  0  0  0  0  0
    5.4268    1.9649    3.8858 C   0  0  0  0  0  0  0  0  0  0  0  0
    6.4217    1.0109    3.7638 C   0  0  0  0  0  0  0  0  0  0  0  0
    6.5163   -0.0789    4.5544 N   0  0  0  0  0  0  0  0  0  0  0  0
    6.1998   -3.8525    7.3210 H   0  0  0  0  0  0  0  0  0  0  0  0
    7.7464   -3.0443    7.6940 H   0  0  0  0  0  0  0  0  0  0  0  0
    7.6214   -4.1066    6.2625 H   0  0  0  0  0  0  0  0  0  0  0  0
    7.3440   -1.9310    5.3412 H   0  0  0  0  0  0  0  0  0  0  0  0
    3.8101    0.5352    6.5211 H   0  0  0  0  0  0  0  0  0  0  0  0
    1.9777    3.6251    6.8952 H   0  0  0  0  0  0  0  0  0  0  0  0
   -0.3688    2.9966    7.2780 H   0  0  0  0  0  0  0  0  0  0  0  0
   -2.2110    1.7671    6.6881 H   0  0  0  0  0  0  0  0  0  0  0  0
   -4.1546    1.3102    6.2157 H   0  0  0  0  0  0  0  0  0  0  0  0
   -3.8990   -1.9600    4.3854 H   0  0  0  0  0  0  0  0  0  0  0  0
   -5.8488   -3.3494    3.9606 H   0  0  0  0  0  0  0  0  0  0  0  0
   -6.3897    0.9102    6.4276 H   0  0  0  0  0  0  0  0  0  0  0  0
   -0.2163    0.4236    3.8030 H   0  0  0  0  0  0  0  0  0  0  0  0
    2.1078    1.0568    3.4454 H   0  0  0  0  0  0  0  0  0  0  0  0
    5.4003    2.8270    3.2286 H   0  0  0  0  0  0  0  0  0  0  0  0
    7.1938    1.1045    3.0048 H   0  0  0  0  0  0  0  0  0  0  0  0
   -3.0000   -2.6000    1.2500 Ti  0  0  0  0  0  0  0  0  0  0  0  0
    0.0000   -2.6000    1.2500 Ti  0  0  0  0  0  0  0  0  0  0  0  0
    3.0000   -2.6000    1.2500 Ti  0  0  0  0  0  0  0  0  0  0  0  0
   -1.5000    0.0000    1.2500 Ti  0  0  0  0  0  0  0  0  0  0  0  0
    1.5000    0.0000    1.2500 Ti  0  0  0  0  0  0  0  0  0  0  0  0
    0.0000    2.6000    1.2500 Ti  0  0  0  0  0  0  0  0  0  0  0  0
   -3.0000   -2.6000   -1.2500 Ti  0  0  0  0  0  0  0  0  0  0  0  0
    0.0000   -2.6000   -1.2500 Ti  0  0  0  0  0  0  0  0  0  0  0  0
    3.0000   -2.6000   -1.2500 Ti  0  0  0  0  0  0  0  0  0  0  0  0
   -1.5000    0.0000   -1.2500 Ti  0  0  0  0  0  0  0  0  0  0  0  0
    1.5000    0.0000   -1.2500 Ti  0  0  0  0  0  0  0  0  0  0  0  0
    0.0000    2.6000   -1.2500 Ti  0  0  0  0  0  0  0  0  0  0  0  0
   -1.5000   -1.3000    0.0000 C   0  0  0  0  0  0  0  0  0  0  0  0
    1.5000   -1.3000    0.0000 C   0  0  0  0  0  0  0  0  0  0  0  0
    0.0000    1.3000    0.0000 C   0  0  0  0  0  0  0  0  0  0  0  0
   -3.0000    0.0000    0.0000 C   0  0  0  0  0  0  0  0  0  0  0  0
    3.0000    0.0000    0.0000 C   0  0  0  0  0  0  0  0  0  0  0  0
   -1.5000    2.6000    0.0000 C   0  0  0  0  0  0  0  0  0  0  0  0
    1.5000    2.6000    0.0000 C   0  0  0  0  0  0  0  0  0  0  0  0
   -3.0000   -2.6000    2.4500 O   0  0  0  0  0  0  0  0  0  0  0  0
    0.0000   -2.6000    2.4500 O   0  0  0  0  0  0  0  0  0  0  0  0
    3.0000   -2.6000    2.4500 O   0  0  0  0  0  0  0  0  0  0  0  0
   -1.5000    0.0000    2.4500 O   0  0  0  0  0  0  0  0  0  0  0  0
    1.5000    0.0000    2.4500 O   0  0  0  0  0  0  0  0  0  0  0  0
   -1.5000    2.6000    2.4500 O   0  0  0  0  0  0  0  0  0  0  0  0
    1.5000    2.6000    2.4500 O   0  0  0  0  0  0  0  0  0  0  0  0
   -3.0000   -2.6000   -2.4500 O   0  0  0  0  0  0  0  0  0  0  0  0
    0.0000   -2.6000   -2.4500 O   0  0  0  0  0  0  0  0  0  0  0  0
    3.0000   -2.6000   -2.4500 O   0  0  0  0  0  0  0  0  0  0  0  0
   -1.5000    0.0000   -2.4500 O   0  0  0  0  0  0  0  0  0  0  0  0
    1.5000    0.0000   -2.4500 O   0  0  0  0  0  0  0  0  0  0  0  0
   -1.5000    2.6000   -2.4500 O   0  0  0  0  0  0  0  0  0  0  0  0
    1.5000    2.6000   -2.4500 O   0  0  0  0  0  0  0  0  0  0  0  0
  1  2  1  0  0  0  0
  2  3  4  0  0  0  0
  3  4  2  0  0  0  0
  3  5  1  0  0  0  0
  5  6  4  0  0  0  0
  6  7  4  0  0  0  0
  7  8  1  0  0  0  0
  8  9  1  0  0  0  0
  9 10  4  0  0  0  0
 10 11  4  0  0  0  0
 11 12  4  0  0  0  0
 12 13  1  0  0  0  0
 13 14  1  0  0  0  0
 14 15  2  0  0  0  0
 14 16  1  0  0  0  0
 16 17  1  0  0  0  0
 17 18  4  0  0  0  0
 18 19  4  0  0  0  0
 19 20  4  0  0  0  0
 20 21  1  0  0  0  0
 20 22  4  0  0  0  0
 22 23  1  0  0  0  0
 23 24  1  0  0  0  0
 23 25  1  0  0  0  0
 23 26  1  0  0  0  0
 17 27  4  0  0  0  0
 22 27  4  0  0  0  0
 12 28  4  0  0  0  0
  9 29  4  0  0  0  0
 28 29  4  0  0  0  0
  7 30  4  0  0  0  0
 30 31  4  0  0  0  0
  5 32  4  0  0  0  0
 31 32  4  0  0  0  0
  1 33  1  0  0  0  0
  1 34  1  0  0  0  0
  1 35  1  0  0  0  0
  2 36  1  0  0  0  0
  6 37  1  0  0  0  0
 10 38  1  0  0  0  0
 11 39  1  0  0  0  0
 13 40  1  0  0  0  0
 16 41  1  0  0  0  0
 18 42  1  0  0  0  0
 19 43  1  0  0  0  0
 27 44  1  0  0  0  0
 28 45  1  0  0  0  0
 29 46  1  0  0  0  0
 30 47  1  0  0  0  0
 31 48  1  0  0  0  0
 50 51  1  0  0  0  0
 49 55  1  0  0  0  0
 50 56  1  0  0  0  0
 55 56  1  0  0  0  0
 51 57  1  0  0  0  0
 56 57  1  0  0  0  0
 52 61  1  0  0  0  0
 58 61  1  0  0  0  0
 53 62  1  0  0  0  0
 59 62  1  0  0  0  0
 54 63  1  0  0  0  0
 60 63  1  0  0  0  0
 52 64  1  0  0  0  0
 58 64  1  0  0  0  0
 61 64  1  0  0  0  0
 53 65  1  0  0  0  0
 59 65  1  0  0  0  0
 62 65  1  0  0  0  0
 54 66  1  0  0  0  0
 60 66  1  0  0  0  0
 63 66  1  0  0  0  0
 54 67  1  0  0  0  0
 60 67  1  0  0  0  0
 63 67  1  0  0  0  0
 49 68  2  0  0  0  0
 50 69  2  0  0  0  0
 51 70  2  0  0  0  0
 52 71  2  0  0  0  0
 53 72  2  0  0  0  0
 54 73  1  0  0  0  0
 66 73  1  0  0  0  0
 54 74  1  0  0  0  0
 67 74  1  0  0  0  0
 55 75  2  0  0  0  0
 56 76  2  0  0  0  0
 57 77  2  0  0  0  0
 58 78  2  0  0  0  0
 59 79  2  0  0  0  0
 60 80  1  0  0  0  0
 66 80  1  0  0  0  0
 60 81  1  0  0  0  0
 67 81  1  0  0  0  0
M  END
