 xtb: 6.7.1pre (5071a88)
          08312621553D

 81 91  0     0  0            999 V2000
    9.1183    2.1027   10.4477 C   0  0  0  0  0  0  0  0  0  0  0  0
    7.8528    1.8206    9.8283 N   0  0  0  0  0  0  0  0  0  0  0  0
    7.2014    0.6160    9.9896 C   0  0  0  0  0  0  0  0  0  0  0  0
    7.5801   -0.2774   10.7379 O   0  0  0  0  0  0  0  0  0  0  0  0
    5.9674    0.4674    9.1513 C   0  0  0  0  0  0  0  0  0  0  0  0
    5.2018   -0.6828    9.2518 C   0  0  0  0  0  0  0  0  0  0  0  0
    4.0639   -0.7684    8.4601 C   0  0  0  0  0  0  0  0  0  0  0  0
    3.3341   -1.9324    8.5467 O   0  0  0  0  0  0  0  0  0  0  0  0
    1.9632   -1.8250    8.5597 C   0  0  0  0  0  0  0  0  0  0  0  0
    1.2505   -2.6919    7.7352 C   0  0  0  0  0  0  0  0  0  0  0  0
   -0.1466   -2.6533    7.7259 C   0  0  0  0  0  0  0  0  0  0  0  0
   -0.8417   -1.7536    8.5455 C   0  0  0  0  0  0  0  0  0  0  0  0
   -2.2506   -1.7805    8.4850 N   0  0  0  0  0  0  0  0  0  0  0  0
   -3.1314   -0.8635    9.0404 C   0  0  0  0  0  0  0  0  0  0  0  0
   -2.8082    0.1868    9.5777 O   0  0  0  0  0  0  0  0  0  0  0  0
   -4.4377   -1.3109    8.8962 N   0  0  0  0  0  0  0  0  0  0  0  0
   -5.6199   -0.6134    9.2170 C   0  0  0  0  0  0  0  0  0  0  0  0
   -6.8146   -1.3383    9.2015 C   0  0  0  0  0  0  0  0  0  0  0  0
   -8.0270   -0.7132    9.5008 C   0  0  0  0  0  0  0  0  0  0  0  0
   -8.0608    0.6479    9.8123 C   0  0  0  0  0  0  0  0  0  0  0  0
   -9.5989    1.3437   10.1704 Cl  0  0  0  0  0  0  0  0  0  0  0  0
   -6.8809    1.3985    9.8229 C   0  0  0  0  0  0  0  0  0  0  0  0
   -6.8894    2.8687   10.1453 C   0  0  0  0  0  0  0  0  0  0  0  0
   -7.6537    3.5951    9.2827 F   0  0  0  0  0  0  0  0  0  0  0  0
   -7.3608    3.1366   11.3944 F   0  0  0  0  0  0  0  0  0  0  0  0
   -5.6528    3.4425   10.0961 F   0  0  0  0  0  0  0  0  0  0  0  0
   -5.6636    0.7509    9.5194 C   0  0  0  0  0  0  0  0  0  0  0  0
   -0.1165   -0.9124    9.3931 C   0  0  0  0  0  0  0  0  0  0  0  0
    1.2823   -0.9515    9.4072 C   0  0  0  0  0  0  0  0  0  0  0  0
    3.7482    0.2623    7.5766 C   0  0  0  0  0  0  0  0  0  0  0  0
    4.5757    1.3717    7.5476 C   0  0  0  0  0  0  0  0  0  0  0  0
    5.6785    1.5067    8.3143 N   0  0  0  0  0  0  0  0  0  0  0  0
    9.1714    1.6448   11.4389 H   0  0  0  0  0  0  0  0  0  0  0  0
    9.2316    3.1861   10.5296 H   0  0  0  0  0  0  0  0  0  0  0  0
    9.9123    1.6958    9.8163 H   0  0  0  0  0  0  0  0  0  0  0  0
    7.4859    2.4302    9.1014 H   0  0  0  0  0  0  0  0  0  0  0  0
    5.4794   -1.4838    9.9281 H   0  0  0  0  0  0  0  0  0  0  0  0
    1.7805   -3.3952    7.0984 H   0  0  0  0  0  0  0  0  0  0  0  0
   -0.6784   -3.3356    7.0683 H   0  0  0  0  0  0  0  0  0  0  0  0
   -2.6522   -2.4312    7.8276 H   0  0  0  0  0  0  0  0  0  0  0  0
   -4.5384   -2.2979    8.7125 H   0  0  0  0  0  0  0  0  0  0  0  0
   -6.8231   -2.3992    8.9639 H   0  0  0  0  0  0  0  0  0  0  0  0
   -8.9453   -1.2965    9.4897 H   0  0  0  0  0  0  0  0  0  0  0  0
   -4.7525    1.3465    9.5175 H   0  0  0  0  0  0  0  0  0  0  0  0
   -0.6108   -0.2233   10.0717 H   0  0  0  0  0  0  0  0  0  0  0  0
    1.8238   -0.3031   10.0909 H   0  0  0  0  0  0  0  0  0  0  0  0
    2.8856    0.2082    6.9220 H   0  0  0  0  0  0  0  0  0  0  0  0
    4.3670    2.2046    6.8812 H   0  0  0  0  0  0  0  0  0  0  0  0
   -2.1419   -3.0088    2.1197 Ti  0  0  0  0  0  0  0  0  0  0  0  0
    0.2890   -1.6948    1.4324 Ti  0  0  0  0  0  0  0  0  0  0  0  0
    1.9031   -3.0677   -0.7293 Ti  0  0  0  0  0  0  0  0  0  0  0  0
   -2.5215   -0.2519    1.3037 Ti  0  0  0  0  0  0  0  0  0  0  0  0
    2.1420    0.4995    2.2044 Ti  0  0  0  0  0  0  0  0  0  0  0  0
   -0.6814    0.1896    3.6812 Ti  0  0  0  0  0  0  0  0  0  0  0  0
   -2.0368   -3.0777   -1.2005 Ti  0  0  0  0  0  0  0  0  0  0  0  0
   -0.6053   -0.7709   -2.0351 Ti  0  0  0  0  0  0  0  0  0  0  0  0
    1.9455   -1.5873   -3.4124 Ti  0  0  0  0  0  0  0  0  0  0  0  0
   -1.8782    1.7466   -1.2400 Ti  0  0  0  0  0  0  0  0  0  0  0  0
    2.4125    0.4542   -0.7742 Ti  0  0  0  0  0  0  0  0  0  0  0  0
    0.8177    1.8385   -2.9400 Ti  0  0  0  0  0  0  0  0  0  0  0  0
   -3.6784    1.2814    0.6007 C   0  0  0  0  0  0  0  0  0  0  0  0
    4.1282    0.4828    0.3873 C   0  0  0  0  0  0  0  0  0  0  0  0
    0.4555    2.2672    0.3497 C   0  0  0  0  0  0  0  0  0  0  0  0
   -3.6667    2.1188   -0.3139 C   0  0  0  0  0  0  0  0  0  0  0  0
    4.1160    0.6322    1.6214 C   0  0  0  0  0  0  0  0  0  0  0  0
   -0.6352    2.7410   -0.1189 C   0  0  0  0  0  0  0  0  0  0  0  0
    1.6301    1.7810    0.7342 C   0  0  0  0  0  0  0  0  0  0  0  0
   -3.0935   -1.9569    1.0379 O   0  0  0  0  0  0  0  0  0  0  0  0
   -0.4872   -2.6058    2.7012 O   0  0  0  0  0  0  0  0  0  0  0  0
    0.3141   -2.8889    0.1450 O   0  0  0  0  0  0  0  0  0  0  0  0
   -0.8008   -0.4359    0.9712 O   0  0  0  0  0  0  0  0  0  0  0  0
    1.9029   -1.1583    1.4694 O   0  0  0  0  0  0  0  0  0  0  0  0
   -2.3227   -0.1139    3.0248 O   0  0  0  0  0  0  0  0  0  0  0  0
    1.0138    0.4416    3.5688 O   0  0  0  0  0  0  0  0  0  0  0  0
   -1.7720   -4.5879   -1.6528 O   0  0  0  0  0  0  0  0  0  0  0  0
    0.1906   -1.1892   -3.5340 O   0  0  0  0  0  0  0  0  0  0  0  0
    2.8314   -2.1702   -1.9180 O   0  0  0  0  0  0  0  0  0  0  0  0
   -2.0546   -0.2244   -1.3375 O   0  0  0  0  0  0  0  0  0  0  0  0
    0.7685   -0.3906   -1.0637 O   0  0  0  0  0  0  0  0  0  0  0  0
   -0.9000    1.6493   -2.8186 O   0  0  0  0  0  0  0  0  0  0  0  0
    2.4153    1.3575   -2.2641 O   0  0  0  0  0  0  0  0  0  0  0  0
  1  2  1  0  0  0  0
  2  3  4  0  0  0  0
  3  4  2  0  0  0  0
  3  5  1  0  0  0  0
  5  6  4  0  0  0  0
  6  7  4  0  0  0  0
  7  8  1  0  0  0  0
  8  9  1  0  0  0  0
  9 10  4  0  0  0  0
 10 11  4  0  0  0  0
 11 12  4  0  0  0  0
 12 13  1  0  0  0  0
 13 14  1  0  0  0  0
 14 15  2  0  0  0  0
 14 16  1  0  0  0  0
 16 17  1  0  0  0  0
 17 18  4  0  0  0  0
 18 19  4  0  0  0  0
 19 20  4  0  0  0  0
 20 21  1  0  0  0  0
 20 22  4  0  0  0  0
 22 23  1  0  0  0  0
 23 24  1  0  0  0  0
 23 25  1  0  0  0  0
 23 26  1  0  0  0  0
 17 27  4  0  0  0  0
 22 27  4  0  0  0  0
 12 28  4  0  0  0  0
  9 29  4  0  0  0  0
 28 29  4  0  0  0  0
  7 30  4  0  0  0  0
 30 31  4  0  0  0  0
  5 32  4  0  0  0  0
 31 32  4  0  0  0  0
  1 33  1  0  0  0  0
  1 34  1  0  0  0  0
  1 35  1  0  0  0  0
  2 36  1  0  0  0  0
  6 37  1  0  0  0  0
 10 38  1  0  0  0  0
 11 39  1  0  0  0  0
 13 40  1  0  0  0  0
 16 41  1  0  0  0  0
 18 42  1  0  0  0  0
 19 43  1  0  0  0  0
 27 44  1  0  0  0  0
 28 45  1  0  0  0  0
 29 46  1  0  0  0  0
 30 47  1  0  0  0  0
 31 48  1  0  0  0  0
 49 55  1  0  0  0  0
 55 56  1  0  0  0  0
 51 57  1  0  0  0  0
 52 61  1  0  0  0  0
 59 62  1  0  0  0  0
 58 64  1  0  0  0  0
 61 64  3  0  0  0  0
 53 65  1  0  0  0  0
 62 65  3  0  0  0  0
 58 66  1  0  0  0  0
 63 66  2  0  0  0  0
 53 67  1  0  0  0  0
 59 67  1  0  0  0  0
 63 67  2  0  0  0  0
 49 68  1  0  0  0  0
 52 68  1  0  0  0  0
 49 69  1  0  0  0  0
 50 69  1  0  0  0  0
 50 70  1  0  0  0  0
 51 70  1  0  0  0  0
 50 71  1  0  0  0  0
 52 71  1  0  0  0  0
 50 72  1  0  0  0  0
 53 72  1  0  0  0  0
 52 73  1  0  0  0  0
 54 73  1  0  0  0  0
 53 74  1  0  0  0  0
 54 74  1  0  0  0  0
 55 75  2  0  0  0  0
 56 76  1  0  0  0  0
 57 76  1  0  0  0  0
 51 77  1  0  0  0  0
 57 77  1  0  0  0  0
 56 78  1  0  0  0  0
 58 78  1  0  0  0  0
 56 79  1  0  0  0  0
 59 79  1  0  0  0  0
 58 80  1  0  0  0  0
 60 80  1  0  0  0  0
 59 81  1  0  0  0  0
 60 81  1  0  0  0  0
M  END
