 xtb: 6.7.1pre (5071a88)
          08312621193D

 79 90  0     0  0            999 V2000
   -2.9443    0.8229    7.7318 C   0  0  0  0  0  0  0  0  0  0  0  0
   -3.1827    1.2458    9.0878 N   0  0  0  0  0  0  0  0  0  0  0  0
   -4.0765    0.5718    9.8965 C   0  0  0  0  0  0  0  0  0  0  0  0
   -4.7868   -0.3508    9.5207 O   0  0  0  0  0  0  0  0  0  0  0  0
   -4.1354    1.0682   11.2936 C   0  0  0  0  0  0  0  0  0  0  0  0
   -4.4292    2.4314   11.4757 C   0  0  0  0  0  0  0  0  0  0  0  0
   -4.5285    2.9654   12.7594 C   0  0  0  0  0  0  0  0  0  0  0  0
   -4.3420    2.1423   13.8657 C   0  0  0  0  0  0  0  0  0  0  0  0
   -4.0523    0.7864   13.6894 C   0  0  0  0  0  0  0  0  0  0  0  0
   -3.9375    0.2304   12.4040 C   0  0  0  0  0  0  0  0  0  0  0  0
   -3.5219   -1.5093   12.3238 S   0  0  0  0  0  0  0  0  0  0  0  0
   -1.9761   -1.4675   11.4294 C   0  0  0  0  0  0  0  0  0  0  0  0
   -0.8723   -0.7696   11.9272 C   0  0  0  0  0  0  0  0  0  0  0  0
    0.3358   -0.7239   11.2148 C   0  0  0  0  0  0  0  0  0  0  0  0
    0.4398   -1.4047    9.9842 C   0  0  0  0  0  0  0  0  0  0  0  0
    1.4351   -1.6016    8.9748 C   0  0  0  0  0  0  0  0  0  0  0  0
    2.7808   -1.1098    8.9563 C   0  0  0  0  0  0  0  0  0  0  0  0
    3.5672   -0.8915   10.0230 C   0  0  0  0  0  0  0  0  0  0  0  0
    4.9431   -0.3888    9.9729 C   0  0  0  0  0  0  0  0  0  0  0  0
    5.8217   -0.6647    8.9291 C   0  0  0  0  0  0  0  0  0  0  0  0
    7.1204   -0.1637    8.9929 C   0  0  0  0  0  0  0  0  0  0  0  0
    7.5072    0.5866   10.0956 C   0  0  0  0  0  0  0  0  0  0  0  0
    6.5759    0.8005   11.0965 C   0  0  0  0  0  0  0  0  0  0  0  0
    5.3108    0.3264   11.0620 N   0  0  0  0  0  0  0  0  0  0  0  0
    0.9507   -2.3113    7.9449 N   0  0  0  0  0  0  0  0  0  0  0  0
   -0.3014   -2.6177    8.3147 N   0  0  0  0  0  0  0  0  0  0  0  0
   -0.6764   -2.0915    9.5183 C   0  0  0  0  0  0  0  0  0  0  0  0
   -1.8897   -2.1547   10.2122 C   0  0  0  0  0  0  0  0  0  0  0  0
   -2.2481   -0.0187    7.7431 H   0  0  0  0  0  0  0  0  0  0  0  0
   -3.8797    0.5148    7.2573 H   0  0  0  0  0  0  0  0  0  0  0  0
   -2.5037    1.6571    7.1812 H   0  0  0  0  0  0  0  0  0  0  0  0
   -2.4907    1.8377    9.5299 H   0  0  0  0  0  0  0  0  0  0  0  0
   -4.6049    3.0737   10.6153 H   0  0  0  0  0  0  0  0  0  0  0  0
   -4.7645    4.0180   12.8961 H   0  0  0  0  0  0  0  0  0  0  0  0
   -4.4274    2.5514   14.8698 H   0  0  0  0  0  0  0  0  0  0  0  0
   -3.9130    0.1633   14.5714 H   0  0  0  0  0  0  0  0  0  0  0  0
   -0.9364   -0.2460   12.8786 H   0  0  0  0  0  0  0  0  0  0  0  0
    1.1710   -0.1571   11.6154 H   0  0  0  0  0  0  0  0  0  0  0  0
    3.1765   -0.9368    7.9587 H   0  0  0  0  0  0  0  0  0  0  0  0
    3.2099   -1.0744   11.0312 H   0  0  0  0  0  0  0  0  0  0  0  0
    5.5204   -1.2693    8.0805 H   0  0  0  0  0  0  0  0  0  0  0  0
    7.8242   -0.3644    8.1902 H   0  0  0  0  0  0  0  0  0  0  0  0
    8.5105    0.9893   10.1765 H   0  0  0  0  0  0  0  0  0  0  0  0
    6.8295    1.3752   11.9828 H   0  0  0  0  0  0  0  0  0  0  0  0
   -0.8642   -3.1817    7.6881 H   0  0  0  0  0  0  0  0  0  0  0  0
   -2.7448   -2.6890    9.8069 H   0  0  0  0  0  0  0  0  0  0  0  0
   -2.1419   -3.0088    2.1197 Ti  0  0  0  0  0  0  0  0  0  0  0  0
    0.2890   -1.6948    1.4324 Ti  0  0  0  0  0  0  0  0  0  0  0  0
    1.9031   -3.0677   -0.7293 Ti  0  0  0  0  0  0  0  0  0  0  0  0
   -2.5215   -0.2519    1.3037 Ti  0  0  0  0  0  0  0  0  0  0  0  0
    2.1420    0.4995    2.2044 Ti  0  0  0  0  0  0  0  0  0  0  0  0
   -0.6814    0.1896    3.6812 Ti  0  0  0  0  0  0  0  0  0  0  0  0
   -2.0368   -3.0777   -1.2005 Ti  0  0  0  0  0  0  0  0  0  0  0  0
   -0.6053   -0.7709   -2.0351 Ti  0  0  0  0  0  0  0  0  0  0  0  0
    1.9455   -1.5873   -3.4124 Ti  0  0  0  0  0  0  0  0  0  0  0  0
   -1.8782    1.7466   -1.2400 Ti  0  0  0  0  0  0  0  0  0  0  0  0
    2.4125    0.4542   -0.7742 Ti  0  0  0  0  0  0  0  0  0  0  0  0
    0.8177    1.8385   -2.9400 Ti  0  0  0  0  0  0  0  0  0  0  0  0
   -3.6784    1.2814    0.6007 C   0  0  0  0  0  0  0  0  0  0  0  0
    4.1282    0.4828    0.3873 C   0  0  0  0  0  0  0  0  0  0  0  0
    0.4555    2.2672    0.3497 C   0  0  0  0  0  0  0  0  0  0  0  0
   -3.6667    2.1188   -0.3139 C   0  0  0  0  0  0  0  0  0  0  0  0
    4.1160    0.6322    1.6214 C   0  0  0  0  0  0  0  0  0  0  0  0
   -0.6352    2.7410   -0.1189 C   0  0  0  0  0  0  0  0  0  0  0  0
    1.6301    1.7810    0.7342 C   0  0  0  0  0  0  0  0  0  0  0  0
   -3.0935   -1.9569    1.0379 O   0  0  0  0  0  0  0  0  0  0  0  0
   -0.4872   -2.6058    2.7012 O   0  0  0  0  0  0  0  0  0  0  0  0
    0.3141   -2.8889    0.1450 O   0  0  0  0  0  0  0  0  0  0  0  0
   -0.8008   -0.4359    0.9712 O   0  0  0  0  0  0  0  0  0  0  0  0
    1.9029   -1.1583    1.4694 O   0  0  0  0  0  0  0  0  0  0  0  0
   -2.3227   -0.1139    3.0248 O   0  0  0  0  0  0  0  0  0  0  0  0
    1.0138    0.4416    3.5688 O   0  0  0  0  0  0  0  0  0  0  0  0
   -1.7720   -4.5879   -1.6528 O   0  0  0  0  0  0  0  0  0  0  0  0
    0.1906   -1.1892   -3.5340 O   0  0  0  0  0  0  0  0  0  0  0  0
    2.8314   -2.1702   -1.9180 O   0  0  0  0  0  0  0  0  0  0  0  0
   -2.0546   -0.2244   -1.3375 O   0  0  0  0  0  0  0  0  0  0  0  0
    0.7685   -0.3906   -1.0637 O   0  0  0  0  0  0  0  0  0  0  0  0
   -0.9000    1.6493   -2.8186 O   0  0  0  0  0  0  0  0  0  0  0  0
    2.4153    1.3575   -2.2641 O   0  0  0  0  0  0  0  0  0  0  0  0
  1  2  1  0  0  0  0
  2  3  4  0  0  0  0
  3  4  2  0  0  0  0
  3  5  1  0  0  0  0
  5  6  4  0  0  0  0
  6  7  4  0  0  0  0
  7  8  4  0  0  0  0
  8  9  4  0  0  0  0
  5 10  4  0  0  0  0
  9 10  4  0  0  0  0
 10 11  1  0  0  0  0
 11 12  1  0  0  0  0
 12 13  4  0  0  0  0
 13 14  2  0  0  0  0
 14 15  4  0  0  0  0
 15 16  1  0  0  0  0
 16 17  1  0  0  0  0
 17 18  2  0  0  0  0
 18 19  1  0  0  0  0
 19 20  4  0  0  0  0
 20 21  4  0  0  0  0
 21 22  4  0  0  0  0
 22 23  4  0  0  0  0
 19 24  4  0  0  0  0
 23 24  4  0  0  0  0
 16 25  4  0  0  0  0
 25 26  1  0  0  0  0
 15 27  4  0  0  0  0
 26 27  1  0  0  0  0
 12 28  4  0  0  0  0
 27 28  4  0  0  0  0
  1 29  1  0  0  0  0
  1 30  1  0  0  0  0
  1 31  1  0  0  0  0
  2 32  1  0  0  0  0
  6 33  1  0  0  0  0
  7 34  1  0  0  0  0
  8 35  1  0  0  0  0
  9 36  1  0  0  0  0
 13 37  1  0  0  0  0
 14 38  1  0  0  0  0
 17 39  1  0  0  0  0
 18 40  1  0  0  0  0
 20 41  1  0  0  0  0
 21 42  1  0  0  0  0
 22 43  1  0  0  0  0
 23 44  1  0  0  0  0
 26 45  1  0  0  0  0
 28 46  1  0  0  0  0
 47 53  1  0  0  0  0
 53 54  1  0  0  0  0
 49 55  1  0  0  0  0
 50 59  1  0  0  0  0
 57 60  1  0  0  0  0
 56 62  1  0  0  0  0
 59 62  3  0  0  0  0
 51 63  1  0  0  0  0
 60 63  3  0  0  0  0
 56 64  1  0  0  0  0
 61 64  2  0  0  0  0
 51 65  1  0  0  0  0
 57 65  1  0  0  0  0
 61 65  2  0  0  0  0
 47 66  1  0  0  0  0
 50 66  1  0  0  0  0
 47 67  1  0  0  0  0
 48 67  1  0  0  0  0
 48 68  1  0  0  0  0
 49 68  1  0  0  0  0
 48 69  1  0  0  0  0
 50 69  1  0  0  0  0
 48 70  1  0  0  0  0
 51 70  1  0  0  0  0
 50 71  1  0  0  0  0
 52 71  1  0  0  0  0
 51 72  1  0  0  0  0
 52 72  1  0  0  0  0
 53 73  2  0  0  0  0
 54 74  1  0  0  0  0
 55 74  1  0  0  0  0
 49 75  1  0  0  0  0
 55 75  1  0  0  0  0
 54 76  1  0  0  0  0
 56 76  1  0  0  0  0
 54 77  1  0  0  0  0
 57 77  1  0  0  0  0
 56 78  1  0  0  0  0
 58 78  1  0  0  0  0
 57 79  1  0  0  0  0
 58 79  1  0  0  0  0
M  END
