 xtb: 6.7.1pre (5071a88)
          08312621563D

 79 90  0     0  0            999 V2000
   -3.8475    5.1552   12.7234 C   0  0  0  0  0  0  0  0  0  0  0  0
   -3.1780    4.3541   13.7152 N   0  0  0  0  0  0  0  0  0  0  0  0
   -3.5112    3.0327   13.9094 C   0  0  0  0  0  0  0  0  0  0  0  0
   -4.4525    2.4757   13.3555 O   0  0  0  0  0  0  0  0  0  0  0  0
   -2.6767    2.2786   14.8791 C   0  0  0  0  0  0  0  0  0  0  0  0
   -3.3755    1.5086   15.8237 C   0  0  0  0  0  0  0  0  0  0  0  0
   -2.6859    0.7671   16.7820 C   0  0  0  0  0  0  0  0  0  0  0  0
   -1.2945    0.7826   16.7982 C   0  0  0  0  0  0  0  0  0  0  0  0
   -0.5919    1.5295   15.8494 C   0  0  0  0  0  0  0  0  0  0  0  0
   -1.2705    2.2770   14.8725 C   0  0  0  0  0  0  0  0  0  0  0  0
   -0.2674    3.1451   13.6664 S   0  0  0  0  0  0  0  0  0  0  0  0
   -0.0122    1.8399   12.4705 C   0  0  0  0  0  0  0  0  0  0  0  0
    1.2621    1.2845   12.3281 C   0  0  0  0  0  0  0  0  0  0  0  0
    1.5053    0.2585   11.4022 C   0  0  0  0  0  0  0  0  0  0  0  0
    0.4443   -0.2218   10.6075 C   0  0  0  0  0  0  0  0  0  0  0  0
    0.2613   -1.2109    9.5898 C   0  0  0  0  0  0  0  0  0  0  0  0
    1.2370   -2.1138    9.0551 C   0  0  0  0  0  0  0  0  0  0  0  0
    2.2734   -2.6523    9.7186 C   0  0  0  0  0  0  0  0  0  0  0  0
    3.2586   -3.5785    9.1523 C   0  0  0  0  0  0  0  0  0  0  0  0
    2.9690   -4.4749    8.1274 C   0  0  0  0  0  0  0  0  0  0  0  0
    3.9716   -5.3336    7.6811 C   0  0  0  0  0  0  0  0  0  0  0  0
    5.2266   -5.2812    8.2732 C   0  0  0  0  0  0  0  0  0  0  0  0
    5.4254   -4.3718    9.2970 C   0  0  0  0  0  0  0  0  0  0  0  0
    4.4719   -3.5287    9.7513 N   0  0  0  0  0  0  0  0  0  0  0  0
   -0.9940   -1.1986    9.1180 N   0  0  0  0  0  0  0  0  0  0  0  0
   -1.6141   -0.2637    9.8531 N   0  0  0  0  0  0  0  0  0  0  0  0
   -0.8060    0.3692   10.7555 C   0  0  0  0  0  0  0  0  0  0  0  0
   -1.0721    1.3975   11.6675 C   0  0  0  0  0  0  0  0  0  0  0  0
   -3.6690    6.2090   12.9489 H   0  0  0  0  0  0  0  0  0  0  0  0
   -3.4337    4.9114   11.7414 H   0  0  0  0  0  0  0  0  0  0  0  0
   -4.9210    4.9483   12.7275 H   0  0  0  0  0  0  0  0  0  0  0  0
   -2.2975    4.6890   14.0888 H   0  0  0  0  0  0  0  0  0  0  0  0
   -4.4641    1.4903   15.8115 H   0  0  0  0  0  0  0  0  0  0  0  0
   -3.2349    0.1764   17.5115 H   0  0  0  0  0  0  0  0  0  0  0  0
   -0.7527    0.2032   17.5423 H   0  0  0  0  0  0  0  0  0  0  0  0
    0.4962    1.5100   15.8716 H   0  0  0  0  0  0  0  0  0  0  0  0
    2.0896    1.6441   12.9361 H   0  0  0  0  0  0  0  0  0  0  0  0
    2.5083   -0.1459   11.3021 H   0  0  0  0  0  0  0  0  0  0  0  0
    1.0668   -2.3869    8.0171 H   0  0  0  0  0  0  0  0  0  0  0  0
    2.4541   -2.4136   10.7619 H   0  0  0  0  0  0  0  0  0  0  0  0
    1.9815   -4.5261    7.6819 H   0  0  0  0  0  0  0  0  0  0  0  0
    3.7702   -6.0405    6.8812 H   0  0  0  0  0  0  0  0  0  0  0  0
    6.0277   -5.9360    7.9497 H   0  0  0  0  0  0  0  0  0  0  0  0
    6.3864   -4.2943    9.7974 H   0  0  0  0  0  0  0  0  0  0  0  0
   -2.5994   -0.0941    9.6846 H   0  0  0  0  0  0  0  0  0  0  0  0
   -2.0650    1.8297   11.7404 H   0  0  0  0  0  0  0  0  0  0  0  0
   -2.1419   -3.0088    2.1197 Ti  0  0  0  0  0  0  0  0  0  0  0  0
    0.2890   -1.6948    1.4324 Ti  0  0  0  0  0  0  0  0  0  0  0  0
    1.9031   -3.0677   -0.7293 Ti  0  0  0  0  0  0  0  0  0  0  0  0
   -2.5215   -0.2519    1.3037 Ti  0  0  0  0  0  0  0  0  0  0  0  0
    2.1420    0.4995    2.2044 Ti  0  0  0  0  0  0  0  0  0  0  0  0
   -0.6814    0.1896    3.6812 Ti  0  0  0  0  0  0  0  0  0  0  0  0
   -2.0368   -3.0777   -1.2005 Ti  0  0  0  0  0  0  0  0  0  0  0  0
   -0.6053   -0.7709   -2.0351 Ti  0  0  0  0  0  0  0  0  0  0  0  0
    1.9455   -1.5873   -3.4124 Ti  0  0  0  0  0  0  0  0  0  0  0  0
   -1.8782    1.7466   -1.2400 Ti  0  0  0  0  0  0  0  0  0  0  0  0
    2.4125    0.4542   -0.7742 Ti  0  0  0  0  0  0  0  0  0  0  0  0
    0.8177    1.8385   -2.9400 Ti  0  0  0  0  0  0  0  0  0  0  0  0
   -3.6784    1.2814    0.6007 C   0  0  0  0  0  0  0  0  0  0  0  0
    4.1282    0.4828    0.3873 C   0  0  0  0  0  0  0  0  0  0  0  0
    0.4555    2.2672    0.3497 C   0  0  0  0  0  0  0  0  0  0  0  0
   -3.6667    2.1188   -0.3139 C   0  0  0  0  0  0  0  0  0  0  0  0
    4.1160    0.6322    1.6214 C   0  0  0  0  0  0  0  0  0  0  0  0
   -0.6352    2.7410   -0.1189 C   0  0  0  0  0  0  0  0  0  0  0  0
    1.6301    1.7810    0.7342 C   0  0  0  0  0  0  0  0  0  0  0  0
   -3.0935   -1.9569    1.0379 O   0  0  0  0  0  0  0  0  0  0  0  0
   -0.4872   -2.6058    2.7012 O   0  0  0  0  0  0  0  0  0  0  0  0
    0.3141   -2.8889    0.1450 O   0  0  0  0  0  0  0  0  0  0  0  0
   -0.8008   -0.4359    0.9712 O   0  0  0  0  0  0  0  0  0  0  0  0
    1.9029   -1.1583    1.4694 O   0  0  0  0  0  0  0  0  0  0  0  0
   -2.3227   -0.1139    3.0248 O   0  0  0  0  0  0  0  0  0  0  0  0
    1.0138    0.4416    3.5688 O   0  0  0  0  0  0  0  0  0  0  0  0
   -1.7720   -4.5879   -1.6528 O   0  0  0  0  0  0  0  0  0  0  0  0
    0.1906   -1.1892   -3.5340 O   0  0  0  0  0  0  0  0  0  0  0  0
    2.8314   -2.1702   -1.9180 O   0  0  0  0  0  0  0  0  0  0  0  0
   -2.0546   -0.2244   -1.3375 O   0  0  0  0  0  0  0  0  0  0  0  0
    0.7685   -0.3906   -1.0637 O   0  0  0  0  0  0  0  0  0  0  0  0
   -0.9000    1.6493   -2.8186 O   0  0  0  0  0  0  0  0  0  0  0  0
    2.4153    1.3575   -2.2641 O   0  0  0  0  0  0  0  0  0  0  0  0
  1  2  1  0  0  0  0
  2  3  4  0  0  0  0
  3  4  2  0  0  0  0
  3  5  1  0  0  0  0
  5  6  4  0  0  0  0
  6  7  4  0  0  0  0
  7  8  4  0  0  0  0
  8  9  4  0  0  0  0
  5 10  4  0  0  0  0
  9 10  4  0  0  0  0
 10 11  1  0  0  0  0
 11 12  1  0  0  0  0
 12 13  4  0  0  0  0
 13 14  2  0  0  0  0
 14 15  4  0  0  0  0
 15 16  1  0  0  0  0
 16 17  1  0  0  0  0
 17 18  2  0  0  0  0
 18 19  1  0  0  0  0
 19 20  4  0  0  0  0
 20 21  4  0  0  0  0
 21 22  4  0  0  0  0
 22 23  4  0  0  0  0
 19 24  4  0  0  0  0
 23 24  4  0  0  0  0
 16 25  4  0  0  0  0
 25 26  1  0  0  0  0
 15 27  4  0  0  0  0
 26 27  1  0  0  0  0
 12 28  4  0  0  0  0
 27 28  4  0  0  0  0
  1 29  1  0  0  0  0
  1 30  1  0  0  0  0
  1 31  1  0  0  0  0
  2 32  1  0  0  0  0
  6 33  1  0  0  0  0
  7 34  1  0  0  0  0
  8 35  1  0  0  0  0
  9 36  1  0  0  0  0
 13 37  1  0  0  0  0
 14 38  1  0  0  0  0
 17 39  1  0  0  0  0
 18 40  1  0  0  0  0
 20 41  1  0  0  0  0
 21 42  1  0  0  0  0
 22 43  1  0  0  0  0
 23 44  1  0  0  0  0
 26 45  1  0  0  0  0
 28 46  1  0  0  0  0
 47 53  1  0  0  0  0
 53 54  1  0  0  0  0
 49 55  1  0  0  0  0
 50 59  1  0  0  0  0
 57 60  1  0  0  0  0
 56 62  1  0  0  0  0
 59 62  3  0  0  0  0
 51 63  1  0  0  0  0
 60 63  3  0  0  0  0
 56 64  1  0  0  0  0
 61 64  2  0  0  0  0
 51 65  1  0  0  0  0
 57 65  1  0  0  0  0
 61 65  2  0  0  0  0
 47 66  1  0  0  0  0
 50 66  1  0  0  0  0
 47 67  1  0  0  0  0
 48 67  1  0  0  0  0
 48 68  1  0  0  0  0
 49 68  1  0  0  0  0
 48 69  1  0  0  0  0
 50 69  1  0  0  0  0
 48 70  1  0  0  0  0
 51 70  1  0  0  0  0
 50 71  1  0  0  0  0
 52 71  1  0  0  0  0
 51 72  1  0  0  0  0
 52 72  1  0  0  0  0
 53 73  2  0  0  0  0
 54 74  1  0  0  0  0
 55 74  1  0  0  0  0
 49 75  1  0  0  0  0
 55 75  1  0  0  0  0
 54 76  1  0  0  0  0
 56 76  1  0  0  0  0
 54 77  1  0  0  0  0
 57 77  1  0  0  0  0
 56 78  1  0  0  0  0
 58 78  1  0  0  0  0
 57 79  1  0  0  0  0
 58 79  1  0  0  0  0
M  END
