 xtb: 6.7.1pre (5071a88)
          08312620383D

 79 93  0     0  0            999 V2000
   -2.9443    0.8229    2.8510 C   0  0  0  0  0  0  0  0  0  0  0  0
   -3.1827    1.2458    4.2070 N   0  0  0  0  0  0  0  0  0  0  0  0
   -4.0765    0.5718    5.0157 C   0  0  0  0  0  0  0  0  0  0  0  0
   -4.7868   -0.3508    4.6398 O   0  0  0  0  0  0  0  0  0  0  0  0
   -4.1354    1.0682    6.4128 C   0  0  0  0  0  0  0  0  0  0  0  0
   -4.4292    2.4314    6.5949 C   0  0  0  0  0  0  0  0  0  0  0  0
   -4.5285    2.9654    7.8785 C   0  0  0  0  0  0  0  0  0  0  0  0
   -4.3420    2.1423    8.9849 C   0  0  0  0  0  0  0  0  0  0  0  0
   -4.0523    0.7864    8.8085 C   0  0  0  0  0  0  0  0  0  0  0  0
   -3.9375    0.2304    7.5232 C   0  0  0  0  0  0  0  0  0  0  0  0
   -3.5219   -1.5093    7.4429 S   0  0  0  0  0  0  0  0  0  0  0  0
   -1.9761   -1.4675    6.5486 C   0  0  0  0  0  0  0  0  0  0  0  0
   -0.8723   -0.7696    7.0464 C   0  0  0  0  0  0  0  0  0  0  0  0
    0.3358   -0.7239    6.3340 C   0  0  0  0  0  0  0  0  0  0  0  0
    0.4398   -1.4047    5.1033 C   0  0  0  0  0  0  0  0  0  0  0  0
    1.4351   -1.6016    4.0940 C   0  0  0  0  0  0  0  0  0  0  0  0
    2.7808   -1.1098    4.0755 C   0  0  0  0  0  0  0  0  0  0  0  0
    3.5672   -0.8915    5.1422 C   0  0  0  0  0  0  0  0  0  0  0  0
    4.9431   -0.3888    5.0920 C   0  0  0  0  0  0  0  0  0  0  0  0
    5.8217   -0.6647    4.0482 C   0  0  0  0  0  0  0  0  0  0  0  0
    7.1204   -0.1637    4.1121 C   0  0  0  0  0  0  0  0  0  0  0  0
    7.5072    0.5866    5.2147 C   0  0  0  0  0  0  0  0  0  0  0  0
    6.5759    0.8005    6.2157 C   0  0  0  0  0  0  0  0  0  0  0  0
    5.3108    0.3264    6.1811 N   0  0  0  0  0  0  0  0  0  0  0  0
    0.9507   -2.3113    3.0640 N   0  0  0  0  0  0  0  0  0  0  0  0
   -0.3014   -2.6177    3.4339 N   0  0  0  0  0  0  0  0  0  0  0  0
   -0.6764   -2.0915    4.6374 C   0  0  0  0  0  0  0  0  0  0  0  0
   -1.8897   -2.1547    5.3314 C   0  0  0  0  0  0  0  0  0  0  0  0
   -2.2481   -0.0187    2.8623 H   0  0  0  0  0  0  0  0  0  0  0  0
   -3.8797    0.5148    2.3764 H   0  0  0  0  0  0  0  0  0  0  0  0
   -2.5037    1.6571    2.3004 H   0  0  0  0  0  0  0  0  0  0  0  0
   -2.4907    1.8377    4.6491 H   0  0  0  0  0  0  0  0  0  0  0  0
   -4.6049    3.0737    5.7345 H   0  0  0  0  0  0  0  0  0  0  0  0
   -4.7645    4.0180    8.0152 H   0  0  0  0  0  0  0  0  0  0  0  0
   -4.4274    2.5514    9.9890 H   0  0  0  0  0  0  0  0  0  0  0  0
   -3.9130    0.1633    9.6905 H   0  0  0  0  0  0  0  0  0  0  0  0
   -0.9364   -0.2460    7.9977 H   0  0  0  0  0  0  0  0  0  0  0  0
    1.1710   -0.1571    6.7346 H   0  0  0  0  0  0  0  0  0  0  0  0
    3.1765   -0.9368    3.0779 H   0  0  0  0  0  0  0  0  0  0  0  0
    3.2099   -1.0744    6.1504 H   0  0  0  0  0  0  0  0  0  0  0  0
    5.5204   -1.2693    3.1997 H   0  0  0  0  0  0  0  0  0  0  0  0
    7.8242   -0.3644    3.3093 H   0  0  0  0  0  0  0  0  0  0  0  0
    8.5105    0.9893    5.2957 H   0  0  0  0  0  0  0  0  0  0  0  0
    6.8295    1.3752    7.1019 H   0  0  0  0  0  0  0  0  0  0  0  0
   -0.8642   -3.1817    2.8073 H   0  0  0  0  0  0  0  0  0  0  0  0
   -2.7448   -2.6890    4.9261 H   0  0  0  0  0  0  0  0  0  0  0  0
   -3.0000   -2.6000    1.2500 Ti  0  0  0  0  0  0  0  0  0  0  0  0
    0.0000   -2.6000    1.2500 Ti  0  0  0  0  0  0  0  0  0  0  0  0
    3.0000   -2.6000    1.2500 Ti  0  0  0  0  0  0  0  0  0  0  0  0
   -1.5000    0.0000    1.2500 Ti  0  0  0  0  0  0  0  0  0  0  0  0
    1.5000    0.0000    1.2500 Ti  0  0  0  0  0  0  0  0  0  0  0  0
    0.0000    2.6000    1.2500 Ti  0  0  0  0  0  0  0  0  0  0  0  0
   -3.0000   -2.6000   -1.2500 Ti  0  0  0  0  0  0  0  0  0  0  0  0
    0.0000   -2.6000   -1.2500 Ti  0  0  0  0  0  0  0  0  0  0  0  0
    3.0000   -2.6000   -1.2500 Ti  0  0  0  0  0  0  0  0  0  0  0  0
   -1.5000    0.0000   -1.2500 Ti  0  0  0  0  0  0  0  0  0  0  0  0
    1.5000    0.0000   -1.2500 Ti  0  0  0  0  0  0  0  0  0  0  0  0
    0.0000    2.6000   -1.2500 Ti  0  0  0  0  0  0  0  0  0  0  0  0
   -1.5000   -1.3000    0.0000 C   0  0  0  0  0  0  0  0  0  0  0  0
    1.5000   -1.3000    0.0000 C   0  0  0  0  0  0  0  0  0  0  0  0
    0.0000    1.3000    0.0000 C   0  0  0  0  0  0  0  0  0  0  0  0
   -3.0000    0.0000    0.0000 C   0  0  0  0  0  0  0  0  0  0  0  0
    3.0000    0.0000    0.0000 C   0  0  0  0  0  0  0  0  0  0  0  0
   -1.5000    2.6000    0.0000 C   0  0  0  0  0  0  0  0  0  0  0  0
    1.5000    2.6000    0.0000 C   0  0  0  0  0  0  0  0  0  0  0  0
   -3.0000   -2.6000    2.4500 O   0  0  0  0  0  0  0  0  0  0  0  0
    0.0000   -2.6000    2.4500 O   0  0  0  0  0  0  0  0  0  0  0  0
    3.0000   -2.6000    2.4500 O   0  0  0  0  0  0  0  0  0  0  0  0
   -1.5000    0.0000    2.4500 O   0  0  0  0  0  0  0  0  0  0  0  0
    1.5000    0.0000    2.4500 O   0  0  0  0  0  0  0  0  0  0  0  0
   -1.5000    2.6000    2.4500 O   0  0  0  0  0  0  0  0  0  0  0  0
    1.5000    2.6000    2.4500 O   0  0  0  0  0  0  0  0  0  0  0  0
   -3.0000   -2.6000   -2.4500 O   0  0  0  0  0  0  0  0  0  0  0  0
    0.0000   -2.6000   -2.4500 O   0  0  0  0  0  0  0  0  0  0  0  0
    3.0000   -2.6000   -2.4500 O   0  0  0  0  0  0  0  0  0  0  0  0
   -1.5000    0.0000   -2.4500 O   0  0  0  0  0  0  0  0  0  0  0  0
    1.5000    0.0000   -2.4500 O   0  0  0  0  0  0  0  0  0  0  0  0
   -1.5000    2.6000   -2.4500 O   0  0  0  0  0  0  0  0  0  0  0  0
    1.5000    2.6000   -2.4500 O   0  0  0  0  0  0  0  0  0  0  0  0
  1  2  1  0  0  0  0
  2  3  1  0  0  0  0
  3  4  2  0  0  0  0
  3  5  1  0  0  0  0
  5  6  4  0  0  0  0
  6  7  4  0  0  0  0
  7  8  4  0  0  0  0
  8  9  4  0  0  0  0
  5 10  4  0  0  0  0
  9 10  4  0  0  0  0
 10 11  1  0  0  0  0
 11 12  1  0  0  0  0
 12 13  4  0  0  0  0
 13 14  4  0  0  0  0
 14 15  4  0  0  0  0
 15 16  1  0  0  0  0
 16 17  1  0  0  0  0
 17 18  2  0  0  0  0
 18 19  1  0  0  0  0
 19 20  4  0  0  0  0
 20 21  4  0  0  0  0
 21 22  4  0  0  0  0
 22 23  4  0  0  0  0
 19 24  4  0  0  0  0
 23 24  4  0  0  0  0
 16 25  1  0  0  0  0
 25 26  1  0  0  0  0
 15 27  4  0  0  0  0
 26 27  1  0  0  0  0
 12 28  4  0  0  0  0
 27 28  4  0  0  0  0
  1 30  1  0  0  0  0
  1 31  1  0  0  0  0
  2 32  1  0  0  0  0
  6 33  1  0  0  0  0
  7 34  1  0  0  0  0
  8 35  1  0  0  0  0
  9 36  1  0  0  0  0
 13 37  1  0  0  0  0
 14 38  1  0  0  0  0
 17 39  1  0  0  0  0
 18 40  1  0  0  0  0
 20 41  1  0  0  0  0
 21 42  1  0  0  0  0
 22 43  1  0  0  0  0
 23 44  1  0  0  0  0
 26 45  1  0  0  0  0
 28 46  1  0  0  0  0
 47 50  1  0  0  0  0
 47 53  1  0  0  0  0
 49 55  1  0  0  0  0
 47 59  1  0  0  0  0
 50 59  1  0  0  0  0
 53 59  1  0  0  0  0
 56 59  1  0  0  0  0
 49 60  1  0  0  0  0
 51 60  1  0  0  0  0
 54 60  1  0  0  0  0
 55 60  1  0  0  0  0
 57 60  1  0  0  0  0
 52 61  1  0  0  0  0
 58 61  1  0  0  0  0
 50 62  1  0  0  0  0
 56 62  1  0  0  0  0
 59 62  1  0  0  0  0
 51 63  1  0  0  0  0
 57 63  1  0  0  0  0
 60 63  1  0  0  0  0
 52 64  1  0  0  0  0
 58 64  1  0  0  0  0
 61 64  1  0  0  0  0
 52 65  1  0  0  0  0
 58 65  1  0  0  0  0
 61 65  1  0  0  0  0
 47 66  2  0  0  0  0
 25 67  1  0  0  0  0
 26 67  4  0  0  0  0
 49 68  2  0  0  0  0
 29 69  1  0  0  0  0
 50 69  1  0  0  0  0
 51 70  2  0  0  0  0
 52 71  1  0  0  0  0
 52 72  1  0  0  0  0
 65 72  1  0  0  0  0
 53 73  2  0  0  0  0
 54 74  2  0  0  0  0
 55 75  2  0  0  0  0
 56 76  2  0  0  0  0
 57 77  2  0  0  0  0
 58 78  1  0  0  0  0
 64 78  1  0  0  0  0
 58 79  1  0  0  0  0
 65 79  1  0  0  0  0
M  END
