 xtb: 6.7.1pre (5071a88)
          08312621553D

 92103  0     0  0            999 V2000
   -7.2175   -1.5871    8.4711 C   0  0  0  0  0  0  0  0  0  0  0  0
   -5.9018   -1.5915    9.1168 N   0  0  0  0  0  0  0  0  0  0  0  0
   -6.0638   -1.8849   10.5458 C   0  0  0  0  0  0  0  0  0  0  0  0
   -5.0251   -2.5817    8.4722 C   0  0  0  0  0  0  0  0  0  0  0  0
   -3.5531   -2.3560    8.6847 C   0  0  0  0  0  0  0  0  0  0  0  0
   -2.9769   -1.2389    9.1591 C   0  0  0  0  0  0  0  0  0  0  0  0
   -1.4980   -1.1487    9.3088 C   0  0  0  0  0  0  0  0  0  0  0  0
   -0.7703   -2.0932    9.0292 O   0  0  0  0  0  0  0  0  0  0  0  0
   -1.1086    0.0783    9.7969 N   0  0  0  0  0  0  0  0  0  0  0  0
    0.2031    0.5329   10.0604 C   0  0  0  0  0  0  0  0  0  0  0  0
    1.3484   -0.2030    9.7609 C   0  0  0  0  0  0  0  0  0  0  0  0
    2.6406    0.2950   10.0654 C   0  0  0  0  0  0  0  0  0  0  0  0
    3.8527   -0.3820    9.8135 C   0  0  0  0  0  0  0  0  0  0  0  0
    3.8090   -1.6727    9.2210 N   0  0  0  0  0  0  0  0  0  0  0  0
    4.8617   -2.4387    8.6744 C   0  0  0  0  0  0  0  0  0  0  0  0
    4.7005   -3.8321    8.5722 C   0  0  0  0  0  0  0  0  0  0  0  0
    5.6868   -4.6324    7.9896 C   0  0  0  0  0  0  0  0  0  0  0  0
    6.8362   -4.0420    7.4801 C   0  0  0  0  0  0  0  0  0  0  0  0
    7.7712   -4.8258    6.9230 F   0  0  0  0  0  0  0  0  0  0  0  0
    7.0020   -2.6622    7.5370 C   0  0  0  0  0  0  0  0  0  0  0  0
    8.4128   -1.9221    6.8812 Cl  0  0  0  0  0  0  0  0  0  0  0  0
    6.0138   -1.8641    8.1196 C   0  0  0  0  0  0  0  0  0  0  0  0
    5.0442    0.1659   10.1124 N   0  0  0  0  0  0  0  0  0  0  0  0
    5.0306    1.3766   10.6743 C   0  0  0  0  0  0  0  0  0  0  0  0
    3.9441    2.0989   10.9660 N   0  0  0  0  0  0  0  0  0  0  0  0
    2.7639    1.5574   10.6581 C   0  0  0  0  0  0  0  0  0  0  0  0
    1.6158    2.2886   10.9398 C   0  0  0  0  0  0  0  0  0  0  0  0
    0.3390    1.8010   10.6499 C   0  0  0  0  0  0  0  0  0  0  0  0
   -0.8402    2.4602   10.9012 O   0  0  0  0  0  0  0  0  0  0  0  0
   -0.7932    3.7857   11.4153 C   0  0  0  0  0  0  0  0  0  0  0  0
   -0.5314    4.8318   10.3528 C   0  0  0  0  0  0  0  0  0  0  0  0
   -1.1370    6.0708   10.9731 C   0  0  0  0  0  0  0  0  0  0  0  0
   -2.2468    5.6367   11.7715 O   0  0  0  0  0  0  0  0  0  0  0  0
   -2.1803    4.2081   11.8860 C   0  0  0  0  0  0  0  0  0  0  0  0
   -7.8721   -0.8409    8.9355 H   0  0  0  0  0  0  0  0  0  0  0  0
   -7.7109   -2.5642    8.5289 H   0  0  0  0  0  0  0  0  0  0  0  0
   -7.1275   -1.3065    7.4157 H   0  0  0  0  0  0  0  0  0  0  0  0
   -6.5333   -2.8605   10.7179 H   0  0  0  0  0  0  0  0  0  0  0  0
   -6.6844   -1.1178   11.0228 H   0  0  0  0  0  0  0  0  0  0  0  0
   -5.1020   -1.8721   11.0690 H   0  0  0  0  0  0  0  0  0  0  0  0
   -5.1735   -2.5596    7.3841 H   0  0  0  0  0  0  0  0  0  0  0  0
   -5.2854   -3.5977    8.7968 H   0  0  0  0  0  0  0  0  0  0  0  0
   -2.9192   -3.1936    8.3959 H   0  0  0  0  0  0  0  0  0  0  0  0
   -3.5777   -0.3796    9.4305 H   0  0  0  0  0  0  0  0  0  0  0  0
   -1.8277    0.7527   10.0373 H   0  0  0  0  0  0  0  0  0  0  0  0
    1.2620   -1.1656    9.2684 H   0  0  0  0  0  0  0  0  0  0  0  0
    3.1367   -2.2500    9.7176 H   0  0  0  0  0  0  0  0  0  0  0  0
    3.7995   -4.3104    8.9505 H   0  0  0  0  0  0  0  0  0  0  0  0
    5.5612   -5.7086    7.9246 H   0  0  0  0  0  0  0  0  0  0  0  0
    6.1473   -0.7863    8.1280 H   0  0  0  0  0  0  0  0  0  0  0  0
    5.9926    1.8148   10.9175 H   0  0  0  0  0  0  0  0  0  0  0  0
    1.7619    3.2602   11.4001 H   0  0  0  0  0  0  0  0  0  0  0  0
   -0.1059    3.8788   12.2656 H   0  0  0  0  0  0  0  0  0  0  0  0
   -1.0529    4.5688    9.4240 H   0  0  0  0  0  0  0  0  0  0  0  0
    0.5258    4.9602   10.1056 H   0  0  0  0  0  0  0  0  0  0  0  0
   -1.4807    6.7901   10.2245 H   0  0  0  0  0  0  0  0  0  0  0  0
   -0.4238    6.5711   11.6369 H   0  0  0  0  0  0  0  0  0  0  0  0
   -2.3691    3.9145   12.9232 H   0  0  0  0  0  0  0  0  0  0  0  0
   -2.9739    3.7732   11.2674 H   0  0  0  0  0  0  0  0  0  0  0  0
   -2.1419   -3.0088    2.1197 Ti  0  0  0  0  0  0  0  0  0  0  0  0
    0.2890   -1.6948    1.4324 Ti  0  0  0  0  0  0  0  0  0  0  0  0
    1.9031   -3.0677   -0.7293 Ti  0  0  0  0  0  0  0  0  0  0  0  0
   -2.5215   -0.2519    1.3037 Ti  0  0  0  0  0  0  0  0  0  0  0  0
    2.1420    0.4995    2.2044 Ti  0  0  0  0  0  0  0  0  0  0  0  0
   -0.6814    0.1896    3.6812 Ti  0  0  0  0  0  0  0  0  0  0  0  0
   -2.0368   -3.0777   -1.2005 Ti  0  0  0  0  0  0  0  0  0  0  0  0
   -0.6053   -0.7709   -2.0351 Ti  0  0  0  0  0  0  0  0  0  0  0  0
    1.9455   -1.5873   -3.4124 Ti  0  0  0  0  0  0  0  0  0  0  0  0
   -1.8782    1.7466   -1.2400 Ti  0  0  0  0  0  0  0  0  0  0  0  0
    2.4125    0.4542   -0.7742 Ti  0  0  0  0  0  0  0  0  0  0  0  0
    0.8177    1.8385   -2.9400 Ti  0  0  0  0  0  0  0  0  0  0  0  0
   -3.6784    1.2814    0.6007 C   0  0  0  0  0  0  0  0  0  0  0  0
    4.1282    0.4828    0.3873 C   0  0  0  0  0  0  0  0  0  0  0  0
    0.4555    2.2672    0.3497 C   0  0  0  0  0  0  0  0  0  0  0  0
   -3.6667    2.1188   -0.3139 C   0  0  0  0  0  0  0  0  0  0  0  0
    4.1160    0.6322    1.6214 C   0  0  0  0  0  0  0  0  0  0  0  0
   -0.6352    2.7410   -0.1189 C   0  0  0  0  0  0  0  0  0  0  0  0
    1.6301    1.7810    0.7342 C   0  0  0  0  0  0  0  0  0  0  0  0
   -3.0935   -1.9569    1.0379 O   0  0  0  0  0  0  0  0  0  0  0  0
   -0.4872   -2.6058    2.7012 O   0  0  0  0  0  0  0  0  0  0  0  0
    0.3141   -2.8889    0.1450 O   0  0  0  0  0  0  0  0  0  0  0  0
   -0.8008   -0.4359    0.9712 O   0  0  0  0  0  0  0  0  0  0  0  0
    1.9029   -1.1583    1.4694 O   0  0  0  0  0  0  0  0  0  0  0  0
   -2.3227   -0.1139    3.0248 O   0  0  0  0  0  0  0  0  0  0  0  0
    1.0138    0.4416    3.5688 O   0  0  0  0  0  0  0  0  0  0  0  0
   -1.7720   -4.5879   -1.6528 O   0  0  0  0  0  0  0  0  0  0  0  0
    0.1906   -1.1892   -3.5340 O   0  0  0  0  0  0  0  0  0  0  0  0
    2.8314   -2.1702   -1.9180 O   0  0  0  0  0  0  0  0  0  0  0  0
   -2.0546   -0.2244   -1.3375 O   0  0  0  0  0  0  0  0  0  0  0  0
    0.7685   -0.3906   -1.0637 O   0  0  0  0  0  0  0  0  0  0  0  0
   -0.9000    1.6493   -2.8186 O   0  0  0  0  0  0  0  0  0  0  0  0
    2.4153    1.3575   -2.2641 O   0  0  0  0  0  0  0  0  0  0  0  0
  1  2  1  0  0  0  0
  2  3  1  0  0  0  0
  2  4  1  0  0  0  0
  4  5  1  0  0  0  0
  5  6  2  0  0  0  0
  6  7  1  0  0  0  0
  7  8  2  0  0  0  0
  7  9  1  0  0  0  0
  9 10  1  0  0  0  0
 10 11  4  0  0  0  0
 11 12  4  0  0  0  0
 12 13  4  0  0  0  0
 13 14  1  0  0  0  0
 14 15  1  0  0  0  0
 15 16  4  0  0  0  0
 16 17  4  0  0  0  0
 17 18  4  0  0  0  0
 18 19  1  0  0  0  0
 18 20  4  0  0  0  0
 20 21  1  0  0  0  0
 15 22  4  0  0  0  0
 20 22  4  0  0  0  0
 13 23  4  0  0  0  0
 23 24  4  0  0  0  0
 24 25  4  0  0  0  0
 12 26  4  0  0  0  0
 25 26  4  0  0  0  0
 26 27  4  0  0  0  0
 10 28  4  0  0  0  0
 27 28  4  0  0  0  0
 28 29  1  0  0  0  0
 29 30  1  0  0  0  0
 30 31  1  0  0  0  0
 31 32  1  0  0  0  0
 32 33  1  0  0  0  0
 30 34  1  0  0  0  0
 33 34  1  0  0  0  0
  1 35  1  0  0  0  0
  1 36  1  0  0  0  0
  1 37  1  0  0  0  0
  3 38  1  0  0  0  0
  3 39  1  0  0  0  0
  3 40  1  0  0  0  0
  4 41  1  0  0  0  0
  4 42  1  0  0  0  0
  5 43  1  0  0  0  0
  6 44  1  0  0  0  0
  9 45  1  0  0  0  0
 11 46  1  0  0  0  0
 14 47  1  0  0  0  0
 16 48  1  0  0  0  0
 17 49  1  0  0  0  0
 22 50  1  0  0  0  0
 24 51  1  0  0  0  0
 27 52  1  0  0  0  0
 30 53  1  0  0  0  0
 31 54  1  0  0  0  0
 31 55  1  0  0  0  0
 32 56  1  0  0  0  0
 32 57  1  0  0  0  0
 34 58  1  0  0  0  0
 34 59  1  0  0  0  0
 60 66  1  0  0  0  0
 66 67  1  0  0  0  0
 62 68  1  0  0  0  0
 63 72  1  0  0  0  0
 70 73  1  0  0  0  0
 69 75  1  0  0  0  0
 72 75  3  0  0  0  0
 64 76  1  0  0  0  0
 73 76  3  0  0  0  0
 69 77  1  0  0  0  0
 74 77  2  0  0  0  0
 64 78  1  0  0  0  0
 70 78  1  0  0  0  0
 74 78  2  0  0  0  0
 60 79  1  0  0  0  0
 63 79  1  0  0  0  0
 60 80  1  0  0  0  0
 61 80  1  0  0  0  0
 61 81  1  0  0  0  0
 62 81  1  0  0  0  0
 61 82  1  0  0  0  0
 63 82  1  0  0  0  0
 61 83  1  0  0  0  0
 64 83  1  0  0  0  0
 63 84  1  0  0  0  0
 65 84  1  0  0  0  0
 64 85  1  0  0  0  0
 65 85  1  0  0  0  0
 66 86  2  0  0  0  0
 67 87  1  0  0  0  0
 68 87  1  0  0  0  0
 62 88  1  0  0  0  0
 68 88  1  0  0  0  0
 67 89  1  0  0  0  0
 69 89  1  0  0  0  0
 67 90  1  0  0  0  0
 70 90  1  0  0  0  0
 69 91  1  0  0  0  0
 71 91  1  0  0  0  0
 70 92  1  0  0  0  0
 71 92  1  0  0  0  0
M  END
