 xtb: 6.7.1pre (5071a88)
          09012617053D

 33 40  0     0  0            999 V2000
   -2.3332   -2.6862    3.3535 Ti  0  0  0  0  0  0  0  0  0  0  0  0
    0.1543   -1.8218    2.2343 Ti  0  0  0  0  0  0  0  0  0  0  0  0
    1.5610   -3.3852    0.1372 Ti  0  0  0  0  0  0  0  0  0  0  0  0
   -2.6126   -0.1946    1.8973 Ti  0  0  0  0  0  0  0  0  0  0  0  0
    2.0641    0.4111    2.8627 Ti  0  0  0  0  0  0  0  0  0  0  0  0
   -0.7334    0.5400    4.2269 Ti  0  0  0  0  0  0  0  0  0  0  0  0
   -2.1784   -3.2674   -0.0854 Ti  0  0  0  0  0  0  0  0  0  0  0  0
   -0.5325   -0.9331   -1.2841 Ti  0  0  0  0  0  0  0  0  0  0  0  0
    1.7450   -1.9308   -2.6429 Ti  0  0  0  0  0  0  0  0  0  0  0  0
   -1.9449    1.5325   -0.7191 Ti  0  0  0  0  0  0  0  0  0  0  0  0
    2.3590    0.2860   -0.1441 Ti  0  0  0  0  0  0  0  0  0  0  0  0
    0.7967    1.7032   -2.2860 Ti  0  0  0  0  0  0  0  0  0  0  0  0
   -3.8227    1.1859    0.9784 C   0  0  0  0  0  0  0  0  0  0  0  0
    4.0673    0.2225    1.0074 C   0  0  0  0  0  0  0  0  0  0  0  0
    0.3677    2.0646    0.9916 C   0  0  0  0  0  0  0  0  0  0  0  0
   -3.8076    1.9717    0.0156 C   0  0  0  0  0  0  0  0  0  0  0  0
    4.0369    0.4319    2.2317 C   0  0  0  0  0  0  0  0  0  0  0  0
   -0.7892    2.4446    0.6033 C   0  0  0  0  0  0  0  0  0  0  0  0
    1.5947    1.6725    1.3373 C   0  0  0  0  0  0  0  0  0  0  0  0
   -3.3109   -1.8831    2.0703 O   0  0  0  0  0  0  0  0  0  0  0  0
   -0.6232   -2.4147    3.7229 O   0  0  0  0  0  0  0  0  0  0  0  0
    0.1969   -3.2872    1.3170 O   0  0  0  0  0  0  0  0  0  0  0  0
   -0.9467   -0.6805    1.5734 O   0  0  0  0  0  0  0  0  0  0  0  0
    1.7605   -1.2533    2.2350 O   0  0  0  0  0  0  0  0  0  0  0  0
   -2.3779    0.2328    3.5849 O   0  0  0  0  0  0  0  0  0  0  0  0
    0.9999    0.6133    4.2402 O   0  0  0  0  0  0  0  0  0  0  0  0
   -0.8639   -2.6462   -1.1027 O   0  0  0  0  0  0  0  0  0  0  0  0
    0.2167   -0.9967   -2.8754 O   0  0  0  0  0  0  0  0  0  0  0  0
    2.4417   -2.7329   -1.2227 O   0  0  0  0  0  0  0  0  0  0  0  0
   -2.0598   -0.2927   -0.7724 O   0  0  0  0  0  0  0  0  0  0  0  0
    0.7979   -0.5417   -0.2934 O   0  0  0  0  0  0  0  0  0  0  0  0
   -0.9396    1.7059   -2.1730 O   0  0  0  0  0  0  0  0  0  0  0  0
    2.3838    1.1332   -1.6608 O   0  0  0  0  0  0  0  0  0  0  0  0
  1  7  1  0  0  0  0
  4 13  1  0  0  0  0
 11 14  1  0  0  0  0
 10 16  1  0  0  0  0
 13 16  3  0  0  0  0
  5 17  1  0  0  0  0
 14 17  3  0  0  0  0
 10 18  1  0  0  0  0
 15 18  2  0  0  0  0
  5 19  1  0  0  0  0
 11 19  1  0  0  0  0
 15 19  2  0  0  0  0
  1 20  1  0  0  0  0
  4 20  1  0  0  0  0
  1 21  1  0  0  0  0
  2 21  1  0  0  0  0
  2 22  1  0  0  0  0
  3 22  1  0  0  0  0
  2 23  1  0  0  0  0
  4 23  1  0  0  0  0
  2 24  1  0  0  0  0
  5 24  1  0  0  0  0
  4 25  1  0  0  0  0
  6 25  1  0  0  0  0
  5 26  1  0  0  0  0
  6 26  1  0  0  0  0
  7 27  1  0  0  0  0
  8 27  1  0  0  0  0
  8 28  1  0  0  0  0
  9 28  1  0  0  0  0
  3 29  1  0  0  0  0
  9 29  1  0  0  0  0
  8 30  1  0  0  0  0
 10 30  1  0  0  0  0
  8 31  1  0  0  0  0
 11 31  1  0  0  0  0
 10 32  1  0  0  0  0
 12 32  1  0  0  0  0
 11 33  1  0  0  0  0
 12 33  1  0  0  0  0
M  END
