 xtb: 6.7.1pre (5071a88)
          09022620133D

 33 40  0     0  0            999 V2000
   -0.9467   -2.7111    6.4442 Ti  0  0  0  0  0  0  0  0  0  0  0  0
    1.1099   -0.8332    5.5180 Ti  0  0  0  0  0  0  0  0  0  0  0  0
    3.1707   -1.5732    3.0746 Ti  0  0  0  0  0  0  0  0  0  0  0  0
   -3.2159   -1.1639    5.2370 Ti  0  0  0  0  0  0  0  0  0  0  0  0
    1.4735    2.0262    5.0587 Ti  0  0  0  0  0  0  0  0  0  0  0  0
   -1.4327    1.2868    4.7958 Ti  0  0  0  0  0  0  0  0  0  0  0  0
    1.8186   -4.0517    4.8093 Ti  0  0  0  0  0  0  0  0  0  0  0  0
   -0.4602   -1.6511    2.7474 Ti  0  0  0  0  0  0  0  0  0  0  0  0
    1.4024   -2.7800    0.8837 Ti  0  0  0  0  0  0  0  0  0  0  0  0
   -2.9903   -0.0635    2.2180 Ti  0  0  0  0  0  0  0  0  0  0  0  0
    1.2892    0.7349    1.4247 Ti  0  0  0  0  0  0  0  0  0  0  0  0
   -0.9478   -0.3125   -0.1443 Ti  0  0  0  0  0  0  0  0  0  0  0  0
   -4.8770   -0.9479    4.0854 C   0  0  0  0  0  0  0  0  0  0  0  0
    2.8237    1.8461    2.2593 C   0  0  0  0  0  0  0  0  0  0  0  0
   -1.0295    1.9491    2.1296 C   0  0  0  0  0  0  0  0  0  0  0  0
   -4.9021   -0.3641    2.9950 C   0  0  0  0  0  0  0  0  0  0  0  0
    2.6952    2.2388    3.4231 C   0  0  0  0  0  0  0  0  0  0  0  0
   -2.1061    1.6365    2.8928 C   0  0  0  0  0  0  0  0  0  0  0  0
   -0.0733    2.1945    1.3267 C   0  0  0  0  0  0  0  0  0  0  0  0
   -2.5540   -2.6691    5.8159 O   0  0  0  0  0  0  0  0  0  0  0  0
    0.7122   -2.1242    6.6530 O   0  0  0  0  0  0  0  0  0  0  0  0
    2.5203   -1.3564    4.6567 O   0  0  0  0  0  0  0  0  0  0  0  0
   -0.4525   -0.1780    5.0846 O   0  0  0  0  0  0  0  0  0  0  0  0
    1.8166    0.6831    6.1456 O   0  0  0  0  0  0  0  0  0  0  0  0
   -2.8931    0.5019    5.5530 O   0  0  0  0  0  0  0  0  0  0  0  0
   -0.2398    2.5356    5.0586 O   0  0  0  0  0  0  0  0  0  0  0  0
    0.2034   -2.6704    3.9097 O   0  0  0  0  0  0  0  0  0  0  0  0
   -0.3172   -2.5919    1.3062 O   0  0  0  0  0  0  0  0  0  0  0  0
    2.8935   -2.0445    1.4211 O   0  0  0  0  0  0  0  0  0  0  0  0
   -2.1229   -1.3665    3.0796 O   0  0  0  0  0  0  0  0  0  0  0  0
    0.6067   -0.2813    2.6830 O   0  0  0  0  0  0  0  0  0  0  0  0
   -2.5434   -0.2387    0.5734 O   0  0  0  0  0  0  0  0  0  0  0  0
    0.8178   -0.1667   -0.0277 O   0  0  0  0  0  0  0  0  0  0  0  0
  1  7  1  0  0  0  0
  3  7  1  0  0  0  0
  4 13  1  0  0  0  0
 11 14  1  0  0  0  0
 10 16  1  0  0  0  0
 13 16  3  0  0  0  0
  5 17  1  0  0  0  0
 14 17  3  0  0  0  0
  6 18  1  0  0  0  0
 10 18  1  0  0  0  0
 15 18  4  0  0  0  0
 11 19  1  0  0  0  0
 15 19  2  0  0  0  0
  1 20  1  0  0  0  0
  4 20  1  0  0  0  0
  1 21  1  0  0  0  0
  2 21  1  0  0  0  0
  2 22  1  0  0  0  0
  3 22  1  0  0  0  0
  2 23  1  0  0  0  0
  6 23  1  0  0  0  0
  2 24  1  0  0  0  0
  5 24  1  0  0  0  0
  4 25  1  0  0  0  0
  6 25  1  0  0  0  0
  5 26  1  0  0  0  0
  6 26  1  0  0  0  0
  8 27  1  0  0  0  0
  8 28  1  0  0  0  0
  9 28  1  0  0  0  0
  3 29  1  0  0  0  0
  9 29  1  0  0  0  0
  8 30  1  0  0  0  0
 10 30  1  0  0  0  0
  8 31  1  0  0  0  0
 11 31  1  0  0  0  0
 10 32  1  0  0  0  0
 12 32  1  0  0  0  0
 11 33  1  0  0  0  0
 12 33  1  0  0  0  0
M  END
