 xtb: 6.7.1pre (5071a88)
          08312621183D

 92103  0     0  0            999 V2000
    6.3810    1.1799   11.1915 C   0  0  0  0  0  0  0  0  0  0  0  0
    6.2572    0.4626   12.4495 N   0  0  0  0  0  0  0  0  0  0  0  0
    6.1650    1.3343   13.6098 C   0  0  0  0  0  0  0  0  0  0  0  0
    5.3149   -0.6470   12.4387 C   0  0  0  0  0  0  0  0  0  0  0  0
    3.8337   -0.4297   12.2657 C   0  0  0  0  0  0  0  0  0  0  0  0
    3.1507    0.7181   12.1248 C   0  0  0  0  0  0  0  0  0  0  0  0
    1.6689    0.7941   12.0019 C   0  0  0  0  0  0  0  0  0  0  0  0
    1.0810    1.7165   12.5532 O   0  0  0  0  0  0  0  0  0  0  0  0
    1.1230   -0.1900   11.2151 N   0  0  0  0  0  0  0  0  0  0  0  0
   -0.2368   -0.3994   10.8969 C   0  0  0  0  0  0  0  0  0  0  0  0
   -1.2681    0.4306   11.3329 C   0  0  0  0  0  0  0  0  0  0  0  0
   -2.6189    0.1581   10.9981 C   0  0  0  0  0  0  0  0  0  0  0  0
   -3.7285    0.9317   11.4001 C   0  0  0  0  0  0  0  0  0  0  0  0
   -3.5111    2.0740   12.2165 N   0  0  0  0  0  0  0  0  0  0  0  0
   -4.4060    3.1145   12.5490 C   0  0  0  0  0  0  0  0  0  0  0  0
   -4.1592    3.8735   13.7070 C   0  0  0  0  0  0  0  0  0  0  0  0
   -4.9806    4.9495   14.0538 C   0  0  0  0  0  0  0  0  0  0  0  0
   -6.0451    5.2928   13.2302 C   0  0  0  0  0  0  0  0  0  0  0  0
   -6.8214    6.3296   13.5782 F   0  0  0  0  0  0  0  0  0  0  0  0
   -6.2874    4.5796   12.0608 C   0  0  0  0  0  0  0  0  0  0  0  0
   -7.5890    5.0189   11.0213 Cl  0  0  0  0  0  0  0  0  0  0  0  0
   -5.4641    3.5044   11.7161 C   0  0  0  0  0  0  0  0  0  0  0  0
   -4.9816    0.6200   11.0239 N   0  0  0  0  0  0  0  0  0  0  0  0
   -5.1337   -0.4655   10.2622 C   0  0  0  0  0  0  0  0  0  0  0  0
   -4.1570   -1.2722    9.8350 N   0  0  0  0  0  0  0  0  0  0  0  0
   -2.9138   -0.9546   10.2006 C   0  0  0  0  0  0  0  0  0  0  0  0
   -1.8764   -1.7697    9.7628 C   0  0  0  0  0  0  0  0  0  0  0  0
   -0.5449   -1.5141   10.0991 C   0  0  0  0  0  0  0  0  0  0  0  0
    0.5340   -2.2717    9.7114 O   0  0  0  0  0  0  0  0  0  0  0  0
    0.3067   -3.4594    8.9628 C   0  0  0  0  0  0  0  0  0  0  0  0
    1.6233   -3.9609    8.4043 C   0  0  0  0  0  0  0  0  0  0  0  0
    1.3231   -5.4201    8.1530 C   0  0  0  0  0  0  0  0  0  0  0  0
    0.3975   -5.8295    9.1692 O   0  0  0  0  0  0  0  0  0  0  0  0
   -0.1069   -4.6510    9.8166 C   0  0  0  0  0  0  0  0  0  0  0  0
    7.2606    1.8335   11.2126 H   0  0  0  0  0  0  0  0  0  0  0  0
    6.5345    0.4842   10.3589 H   0  0  0  0  0  0  0  0  0  0  0  0
    5.5121    1.8022   10.9614 H   0  0  0  0  0  0  0  0  0  0  0  0
    6.1696    0.7510   14.5373 H   0  0  0  0  0  0  0  0  0  0  0  0
    5.2724    1.9651   13.6074 H   0  0  0  0  0  0  0  0  0  0  0  0
    7.0381    1.9951   13.6578 H   0  0  0  0  0  0  0  0  0  0  0  0
    5.4486   -1.2155   13.3691 H   0  0  0  0  0  0  0  0  0  0  0  0
    5.6268   -1.3438   11.6488 H   0  0  0  0  0  0  0  0  0  0  0  0
    3.2769   -1.3657   12.2931 H   0  0  0  0  0  0  0  0  0  0  0  0
    3.6246    1.6902   12.1645 H   0  0  0  0  0  0  0  0  0  0  0  0
    1.7508   -0.8563   10.7779 H   0  0  0  0  0  0  0  0  0  0  0  0
   -1.0436    1.3122   11.9237 H   0  0  0  0  0  0  0  0  0  0  0  0
   -2.9135    1.8226   12.9982 H   0  0  0  0  0  0  0  0  0  0  0  0
   -3.3201    3.6303   14.3554 H   0  0  0  0  0  0  0  0  0  0  0  0
   -4.7916    5.5238   14.9552 H   0  0  0  0  0  0  0  0  0  0  0  0
   -5.6508    2.9785   10.7843 H   0  0  0  0  0  0  0  0  0  0  0  0
   -6.1456   -0.7165    9.9626 H   0  0  0  0  0  0  0  0  0  0  0  0
   -2.1550   -2.6153    9.1425 H   0  0  0  0  0  0  0  0  0  0  0  0
   -0.3748   -3.2958    8.1184 H   0  0  0  0  0  0  0  0  0  0  0  0
    1.9437   -3.4269    7.5050 H   0  0  0  0  0  0  0  0  0  0  0  0
    2.4217   -3.8518    9.1493 H   0  0  0  0  0  0  0  0  0  0  0  0
    2.2179   -6.0472    8.1949 H   0  0  0  0  0  0  0  0  0  0  0  0
    0.8391   -5.5650    7.1812 H   0  0  0  0  0  0  0  0  0  0  0  0
    0.3206   -4.5998   10.8244 H   0  0  0  0  0  0  0  0  0  0  0  0
   -1.1924   -4.7365    9.9182 H   0  0  0  0  0  0  0  0  0  0  0  0
   -2.1419   -3.0088    2.1197 Ti  0  0  0  0  0  0  0  0  0  0  0  0
    0.2890   -1.6948    1.4324 Ti  0  0  0  0  0  0  0  0  0  0  0  0
    1.9031   -3.0677   -0.7293 Ti  0  0  0  0  0  0  0  0  0  0  0  0
   -2.5215   -0.2519    1.3037 Ti  0  0  0  0  0  0  0  0  0  0  0  0
    2.1420    0.4995    2.2044 Ti  0  0  0  0  0  0  0  0  0  0  0  0
   -0.6814    0.1896    3.6812 Ti  0  0  0  0  0  0  0  0  0  0  0  0
   -2.0368   -3.0777   -1.2005 Ti  0  0  0  0  0  0  0  0  0  0  0  0
   -0.6053   -0.7709   -2.0351 Ti  0  0  0  0  0  0  0  0  0  0  0  0
    1.9455   -1.5873   -3.4124 Ti  0  0  0  0  0  0  0  0  0  0  0  0
   -1.8782    1.7466   -1.2400 Ti  0  0  0  0  0  0  0  0  0  0  0  0
    2.4125    0.4542   -0.7742 Ti  0  0  0  0  0  0  0  0  0  0  0  0
    0.8177    1.8385   -2.9400 Ti  0  0  0  0  0  0  0  0  0  0  0  0
   -3.6784    1.2814    0.6007 C   0  0  0  0  0  0  0  0  0  0  0  0
    4.1282    0.4828    0.3873 C   0  0  0  0  0  0  0  0  0  0  0  0
    0.4555    2.2672    0.3497 C   0  0  0  0  0  0  0  0  0  0  0  0
   -3.6667    2.1188   -0.3139 C   0  0  0  0  0  0  0  0  0  0  0  0
    4.1160    0.6322    1.6214 C   0  0  0  0  0  0  0  0  0  0  0  0
   -0.6352    2.7410   -0.1189 C   0  0  0  0  0  0  0  0  0  0  0  0
    1.6301    1.7810    0.7342 C   0  0  0  0  0  0  0  0  0  0  0  0
   -3.0935   -1.9569    1.0379 O   0  0  0  0  0  0  0  0  0  0  0  0
   -0.4872   -2.6058    2.7012 O   0  0  0  0  0  0  0  0  0  0  0  0
    0.3141   -2.8889    0.1450 O   0  0  0  0  0  0  0  0  0  0  0  0
   -0.8008   -0.4359    0.9712 O   0  0  0  0  0  0  0  0  0  0  0  0
    1.9029   -1.1583    1.4694 O   0  0  0  0  0  0  0  0  0  0  0  0
   -2.3227   -0.1139    3.0248 O   0  0  0  0  0  0  0  0  0  0  0  0
    1.0138    0.4416    3.5688 O   0  0  0  0  0  0  0  0  0  0  0  0
   -1.7720   -4.5879   -1.6528 O   0  0  0  0  0  0  0  0  0  0  0  0
    0.1906   -1.1892   -3.5340 O   0  0  0  0  0  0  0  0  0  0  0  0
    2.8314   -2.1702   -1.9180 O   0  0  0  0  0  0  0  0  0  0  0  0
   -2.0546   -0.2244   -1.3375 O   0  0  0  0  0  0  0  0  0  0  0  0
    0.7685   -0.3906   -1.0637 O   0  0  0  0  0  0  0  0  0  0  0  0
   -0.9000    1.6493   -2.8186 O   0  0  0  0  0  0  0  0  0  0  0  0
    2.4153    1.3575   -2.2641 O   0  0  0  0  0  0  0  0  0  0  0  0
  1  2  1  0  0  0  0
  2  3  1  0  0  0  0
  2  4  1  0  0  0  0
  4  5  1  0  0  0  0
  5  6  2  0  0  0  0
  6  7  1  0  0  0  0
  7  8  2  0  0  0  0
  7  9  1  0  0  0  0
  9 10  1  0  0  0  0
 10 11  4  0  0  0  0
 11 12  4  0  0  0  0
 12 13  4  0  0  0  0
 13 14  1  0  0  0  0
 14 15  1  0  0  0  0
 15 16  4  0  0  0  0
 16 17  4  0  0  0  0
 17 18  4  0  0  0  0
 18 19  1  0  0  0  0
 18 20  4  0  0  0  0
 20 21  1  0  0  0  0
 15 22  4  0  0  0  0
 20 22  4  0  0  0  0
 13 23  4  0  0  0  0
 23 24  4  0  0  0  0
 24 25  4  0  0  0  0
 12 26  4  0  0  0  0
 25 26  4  0  0  0  0
 26 27  4  0  0  0  0
 10 28  4  0  0  0  0
 27 28  4  0  0  0  0
 28 29  1  0  0  0  0
 29 30  1  0  0  0  0
 30 31  1  0  0  0  0
 31 32  1  0  0  0  0
 32 33  1  0  0  0  0
 30 34  1  0  0  0  0
 33 34  1  0  0  0  0
  1 35  1  0  0  0  0
  1 36  1  0  0  0  0
  1 37  1  0  0  0  0
  3 38  1  0  0  0  0
  3 39  1  0  0  0  0
  3 40  1  0  0  0  0
  4 41  1  0  0  0  0
  4 42  1  0  0  0  0
  5 43  1  0  0  0  0
  6 44  1  0  0  0  0
  9 45  1  0  0  0  0
 11 46  1  0  0  0  0
 14 47  1  0  0  0  0
 16 48  1  0  0  0  0
 17 49  1  0  0  0  0
 22 50  1  0  0  0  0
 24 51  1  0  0  0  0
 27 52  1  0  0  0  0
 30 53  1  0  0  0  0
 31 54  1  0  0  0  0
 31 55  1  0  0  0  0
 32 56  1  0  0  0  0
 32 57  1  0  0  0  0
 34 58  1  0  0  0  0
 34 59  1  0  0  0  0
 60 66  1  0  0  0  0
 66 67  1  0  0  0  0
 62 68  1  0  0  0  0
 63 72  1  0  0  0  0
 70 73  1  0  0  0  0
 69 75  1  0  0  0  0
 72 75  3  0  0  0  0
 64 76  1  0  0  0  0
 73 76  3  0  0  0  0
 69 77  1  0  0  0  0
 74 77  2  0  0  0  0
 64 78  1  0  0  0  0
 70 78  1  0  0  0  0
 74 78  2  0  0  0  0
 60 79  1  0  0  0  0
 63 79  1  0  0  0  0
 60 80  1  0  0  0  0
 61 80  1  0  0  0  0
 61 81  1  0  0  0  0
 62 81  1  0  0  0  0
 61 82  1  0  0  0  0
 63 82  1  0  0  0  0
 61 83  1  0  0  0  0
 64 83  1  0  0  0  0
 63 84  1  0  0  0  0
 65 84  1  0  0  0  0
 64 85  1  0  0  0  0
 65 85  1  0  0  0  0
 66 86  2  0  0  0  0
 67 87  1  0  0  0  0
 68 87  1  0  0  0  0
 62 88  1  0  0  0  0
 68 88  1  0  0  0  0
 67 89  1  0  0  0  0
 69 89  1  0  0  0  0
 67 90  1  0  0  0  0
 70 90  1  0  0  0  0
 69 91  1  0  0  0  0
 71 91  1  0  0  0  0
 70 92  1  0  0  0  0
 71 92  1  0  0  0  0
M  END
