 xtb: 6.7.1pre (5071a88)
          09012620323D

 33 40  0     0  0            999 V2000
   -2.3935   -2.5860    3.4069 Ti  0  0  0  0  0  0  0  0  0  0  0  0
    0.1628   -1.8717    2.2411 Ti  0  0  0  0  0  0  0  0  0  0  0  0
    1.6268   -3.3529    0.1255 Ti  0  0  0  0  0  0  0  0  0  0  0  0
   -2.6180   -0.1407    1.8337 Ti  0  0  0  0  0  0  0  0  0  0  0  0
    2.1346    0.3607    2.8401 Ti  0  0  0  0  0  0  0  0  0  0  0  0
   -0.6796    0.5899    4.1074 Ti  0  0  0  0  0  0  0  0  0  0  0  0
   -2.1686   -3.2821    0.0227 Ti  0  0  0  0  0  0  0  0  0  0  0  0
   -0.5400   -0.9799   -1.2819 Ti  0  0  0  0  0  0  0  0  0  0  0  0
    1.7787   -1.8655   -2.6557 Ti  0  0  0  0  0  0  0  0  0  0  0  0
   -1.9577    1.5329   -0.7153 Ti  0  0  0  0  0  0  0  0  0  0  0  0
    2.3568    0.2716   -0.1497 Ti  0  0  0  0  0  0  0  0  0  0  0  0
    0.7808    1.7255   -2.2406 Ti  0  0  0  0  0  0  0  0  0  0  0  0
   -3.8895    1.1676    0.8877 C   0  0  0  0  0  0  0  0  0  0  0  0
    4.0757    0.2280    0.9908 C   0  0  0  0  0  0  0  0  0  0  0  0
    0.3271    1.9542    1.0900 C   0  0  0  0  0  0  0  0  0  0  0  0
   -3.8408    1.9683   -0.0618 C   0  0  0  0  0  0  0  0  0  0  0  0
    4.0950    0.4149    2.2198 C   0  0  0  0  0  0  0  0  0  0  0  0
   -0.8802    2.2495    0.7879 C   0  0  0  0  0  0  0  0  0  0  0  0
    1.5964    1.6434    1.3579 C   0  0  0  0  0  0  0  0  0  0  0  0
   -3.3947   -1.7632    2.1654 O   0  0  0  0  0  0  0  0  0  0  0  0
   -0.6507   -2.4428    3.6991 O   0  0  0  0  0  0  0  0  0  0  0  0
    0.2752   -3.3388    1.3082 O   0  0  0  0  0  0  0  0  0  0  0  0
   -0.9818   -0.8069    1.5456 O   0  0  0  0  0  0  0  0  0  0  0  0
    1.7649   -1.2751    2.2185 O   0  0  0  0  0  0  0  0  0  0  0  0
   -2.3096    0.4225    3.4428 O   0  0  0  0  0  0  0  0  0  0  0  0
    1.0365    0.5655    4.1862 O   0  0  0  0  0  0  0  0  0  0  0  0
   -0.8648   -2.6946   -1.0508 O   0  0  0  0  0  0  0  0  0  0  0  0
    0.1898   -1.0047   -2.8691 O   0  0  0  0  0  0  0  0  0  0  0  0
    2.5028   -2.5978   -1.1996 O   0  0  0  0  0  0  0  0  0  0  0  0
   -2.0696   -0.3051   -0.8254 O   0  0  0  0  0  0  0  0  0  0  0  0
    0.7804   -0.5372   -0.2920 O   0  0  0  0  0  0  0  0  0  0  0  0
   -0.9385    1.8391   -2.1089 O   0  0  0  0  0  0  0  0  0  0  0  0
    2.3609    1.1154   -1.6675 O   0  0  0  0  0  0  0  0  0  0  0  0
  1  7  1  0  0  0  0
  4 13  1  0  0  0  0
 11 14  1  0  0  0  0
 10 16  1  0  0  0  0
 13 16  3  0  0  0  0
  5 17  1  0  0  0  0
 14 17  3  0  0  0  0
 10 18  1  0  0  0  0
 15 18  2  0  0  0  0
  5 19  1  0  0  0  0
 11 19  1  0  0  0  0
 15 19  2  0  0  0  0
  1 20  1  0  0  0  0
  4 20  1  0  0  0  0
  1 21  1  0  0  0  0
  2 21  1  0  0  0  0
  2 22  1  0  0  0  0
  3 22  1  0  0  0  0
  2 23  1  0  0  0  0
  4 23  1  0  0  0  0
  2 24  1  0  0  0  0
  5 24  1  0  0  0  0
  4 25  1  0  0  0  0
  6 25  1  0  0  0  0
  5 26  1  0  0  0  0
  6 26  1  0  0  0  0
  7 27  1  0  0  0  0
  8 27  1  0  0  0  0
  8 28  1  0  0  0  0
  9 28  1  0  0  0  0
  3 29  1  0  0  0  0
  9 29  1  0  0  0  0
  8 30  1  0  0  0  0
 10 30  1  0  0  0  0
  8 31  1  0  0  0  0
 11 31  1  0  0  0  0
 10 32  1  0  0  0  0
 12 32  1  0  0  0  0
 11 33  1  0  0  0  0
 12 33  1  0  0  0  0
M  END
