 xtb: 6.7.1pre (5071a88)
          08312620343D

 92104  0     0  0            999 V2000
    6.3810    1.1799    5.4383 C   0  0  0  0  0  0  0  0  0  0  0  0
    6.2572    0.4626    6.6964 N   0  0  0  0  0  0  0  0  0  0  0  0
    6.1650    1.3343    7.8566 C   0  0  0  0  0  0  0  0  0  0  0  0
    5.3149   -0.6470    6.6856 C   0  0  0  0  0  0  0  0  0  0  0  0
    3.8337   -0.4297    6.5125 C   0  0  0  0  0  0  0  0  0  0  0  0
    3.1507    0.7181    6.3717 C   0  0  0  0  0  0  0  0  0  0  0  0
    1.6689    0.7941    6.2488 C   0  0  0  0  0  0  0  0  0  0  0  0
    1.0810    1.7165    6.8001 O   0  0  0  0  0  0  0  0  0  0  0  0
    1.1230   -0.1900    5.4620 N   0  0  0  0  0  0  0  0  0  0  0  0
   -0.2368   -0.3994    5.1438 C   0  0  0  0  0  0  0  0  0  0  0  0
   -1.2681    0.4306    5.5797 C   0  0  0  0  0  0  0  0  0  0  0  0
   -2.6189    0.1581    5.2449 C   0  0  0  0  0  0  0  0  0  0  0  0
   -3.7285    0.9317    5.6469 C   0  0  0  0  0  0  0  0  0  0  0  0
   -3.5111    2.0740    6.4634 N   0  0  0  0  0  0  0  0  0  0  0  0
   -4.4060    3.1145    6.7959 C   0  0  0  0  0  0  0  0  0  0  0  0
   -4.1592    3.8735    7.9538 C   0  0  0  0  0  0  0  0  0  0  0  0
   -4.9806    4.9495    8.3006 C   0  0  0  0  0  0  0  0  0  0  0  0
   -6.0451    5.2928    7.4771 C   0  0  0  0  0  0  0  0  0  0  0  0
   -6.8214    6.3296    7.8250 F   0  0  0  0  0  0  0  0  0  0  0  0
   -6.2874    4.5796    6.3077 C   0  0  0  0  0  0  0  0  0  0  0  0
   -7.5890    5.0189    5.2681 Cl  0  0  0  0  0  0  0  0  0  0  0  0
   -5.4641    3.5044    5.9629 C   0  0  0  0  0  0  0  0  0  0  0  0
   -4.9816    0.6200    5.2707 N   0  0  0  0  0  0  0  0  0  0  0  0
   -5.1337   -0.4655    4.5091 C   0  0  0  0  0  0  0  0  0  0  0  0
   -4.1570   -1.2722    4.0818 N   0  0  0  0  0  0  0  0  0  0  0  0
   -2.9138   -0.9546    4.4474 C   0  0  0  0  0  0  0  0  0  0  0  0
   -1.8764   -1.7697    4.0097 C   0  0  0  0  0  0  0  0  0  0  0  0
   -0.5449   -1.5141    4.3459 C   0  0  0  0  0  0  0  0  0  0  0  0
    0.5340   -2.2717    3.9582 O   0  0  0  0  0  0  0  0  0  0  0  0
    0.3067   -3.4594    3.2097 C   0  0  0  0  0  0  0  0  0  0  0  0
    1.6233   -3.9609    2.6512 C   0  0  0  0  0  0  0  0  0  0  0  0
    1.3231   -5.4201    2.3999 C   0  0  0  0  0  0  0  0  0  0  0  0
    0.3975   -5.8295    3.4160 O   0  0  0  0  0  0  0  0  0  0  0  0
   -0.1069   -4.6510    4.0635 C   0  0  0  0  0  0  0  0  0  0  0  0
    7.2606    1.8335    5.4594 H   0  0  0  0  0  0  0  0  0  0  0  0
    6.5345    0.4842    4.6058 H   0  0  0  0  0  0  0  0  0  0  0  0
    5.5121    1.8022    5.2083 H   0  0  0  0  0  0  0  0  0  0  0  0
    6.1696    0.7510    8.7842 H   0  0  0  0  0  0  0  0  0  0  0  0
    5.2724    1.9651    7.8543 H   0  0  0  0  0  0  0  0  0  0  0  0
    7.0381    1.9951    7.9047 H   0  0  0  0  0  0  0  0  0  0  0  0
    5.4486   -1.2155    7.6160 H   0  0  0  0  0  0  0  0  0  0  0  0
    5.6268   -1.3438    5.8957 H   0  0  0  0  0  0  0  0  0  0  0  0
    3.2769   -1.3657    6.5400 H   0  0  0  0  0  0  0  0  0  0  0  0
    3.6246    1.6902    6.4113 H   0  0  0  0  0  0  0  0  0  0  0  0
    1.7508   -0.8563    5.0247 H   0  0  0  0  0  0  0  0  0  0  0  0
   -1.0436    1.3122    6.1706 H   0  0  0  0  0  0  0  0  0  0  0  0
   -2.9135    1.8226    7.2450 H   0  0  0  0  0  0  0  0  0  0  0  0
   -3.3201    3.6303    8.6023 H   0  0  0  0  0  0  0  0  0  0  0  0
   -4.7916    5.5238    9.2021 H   0  0  0  0  0  0  0  0  0  0  0  0
   -5.6508    2.9785    5.0312 H   0  0  0  0  0  0  0  0  0  0  0  0
   -6.1456   -0.7165    4.2095 H   0  0  0  0  0  0  0  0  0  0  0  0
   -2.1550   -2.6153    3.3893 H   0  0  0  0  0  0  0  0  0  0  0  0
   -0.3748   -3.2958    2.3653 H   0  0  0  0  0  0  0  0  0  0  0  0
    1.9437   -3.4269    1.7518 H   0  0  0  0  0  0  0  0  0  0  0  0
    2.4217   -3.8518    3.3962 H   0  0  0  0  0  0  0  0  0  0  0  0
    2.2179   -6.0472    2.4417 H   0  0  0  0  0  0  0  0  0  0  0  0
    0.8391   -5.5650    1.4281 H   0  0  0  0  0  0  0  0  0  0  0  0
    0.3206   -4.5998    5.0713 H   0  0  0  0  0  0  0  0  0  0  0  0
   -1.1924   -4.7365    4.1650 H   0  0  0  0  0  0  0  0  0  0  0  0
   -3.0000   -2.6000    1.2500 Ti  0  0  0  0  0  0  0  0  0  0  0  0
    0.0000   -2.6000    1.2500 Ti  0  0  0  0  0  0  0  0  0  0  0  0
    3.0000   -2.6000    1.2500 Ti  0  0  0  0  0  0  0  0  0  0  0  0
   -1.5000    0.0000    1.2500 Ti  0  0  0  0  0  0  0  0  0  0  0  0
    1.5000    0.0000    1.2500 Ti  0  0  0  0  0  0  0  0  0  0  0  0
    0.0000    2.6000    1.2500 Ti  0  0  0  0  0  0  0  0  0  0  0  0
   -3.0000   -2.6000   -1.2500 Ti  0  0  0  0  0  0  0  0  0  0  0  0
    0.0000   -2.6000   -1.2500 Ti  0  0  0  0  0  0  0  0  0  0  0  0
    3.0000   -2.6000   -1.2500 Ti  0  0  0  0  0  0  0  0  0  0  0  0
   -1.5000    0.0000   -1.2500 Ti  0  0  0  0  0  0  0  0  0  0  0  0
    1.5000    0.0000   -1.2500 Ti  0  0  0  0  0  0  0  0  0  0  0  0
    0.0000    2.6000   -1.2500 Ti  0  0  0  0  0  0  0  0  0  0  0  0
   -1.5000   -1.3000    0.0000 C   0  0  0  0  0  0  0  0  0  0  0  0
    1.5000   -1.3000    0.0000 C   0  0  0  0  0  0  0  0  0  0  0  0
    0.0000    1.3000    0.0000 C   0  0  0  0  0  0  0  0  0  0  0  0
   -3.0000    0.0000    0.0000 C   0  0  0  0  0  0  0  0  0  0  0  0
    3.0000    0.0000    0.0000 C   0  0  0  0  0  0  0  0  0  0  0  0
   -1.5000    2.6000    0.0000 C   0  0  0  0  0  0  0  0  0  0  0  0
    1.5000    2.6000    0.0000 C   0  0  0  0  0  0  0  0  0  0  0  0
   -3.0000   -2.6000    2.4500 O   0  0  0  0  0  0  0  0  0  0  0  0
    0.0000   -2.6000    2.4500 O   0  0  0  0  0  0  0  0  0  0  0  0
    3.0000   -2.6000    2.4500 O   0  0  0  0  0  0  0  0  0  0  0  0
   -1.5000    0.0000    2.4500 O   0  0  0  0  0  0  0  0  0  0  0  0
    1.5000    0.0000    2.4500 O   0  0  0  0  0  0  0  0  0  0  0  0
   -1.5000    2.6000    2.4500 O   0  0  0  0  0  0  0  0  0  0  0  0
    1.5000    2.6000    2.4500 O   0  0  0  0  0  0  0  0  0  0  0  0
   -3.0000   -2.6000   -2.4500 O   0  0  0  0  0  0  0  0  0  0  0  0
    0.0000   -2.6000   -2.4500 O   0  0  0  0  0  0  0  0  0  0  0  0
    3.0000   -2.6000   -2.4500 O   0  0  0  0  0  0  0  0  0  0  0  0
   -1.5000    0.0000   -2.4500 O   0  0  0  0  0  0  0  0  0  0  0  0
    1.5000    0.0000   -2.4500 O   0  0  0  0  0  0  0  0  0  0  0  0
   -1.5000    2.6000   -2.4500 O   0  0  0  0  0  0  0  0  0  0  0  0
    1.5000    2.6000   -2.4500 O   0  0  0  0  0  0  0  0  0  0  0  0
  1  2  1  0  0  0  0
  2  3  1  0  0  0  0
  2  4  1  0  0  0  0
  4  5  1  0  0  0  0
  5  6  2  0  0  0  0
  6  7  1  0  0  0  0
  7  8  2  0  0  0  0
  7  9  1  0  0  0  0
  9 10  1  0  0  0  0
 10 11  4  0  0  0  0
 11 12  4  0  0  0  0
 12 13  4  0  0  0  0
 13 14  1  0  0  0  0
 14 15  1  0  0  0  0
 15 16  4  0  0  0  0
 16 17  4  0  0  0  0
 17 18  4  0  0  0  0
 18 19  1  0  0  0  0
 18 20  4  0  0  0  0
 20 21  1  0  0  0  0
 15 22  4  0  0  0  0
 20 22  4  0  0  0  0
 13 23  4  0  0  0  0
 23 24  4  0  0  0  0
 24 25  4  0  0  0  0
 12 26  4  0  0  0  0
 25 26  4  0  0  0  0
 26 27  4  0  0  0  0
 10 28  4  0  0  0  0
 27 28  4  0  0  0  0
 28 29  1  0  0  0  0
 29 30  1  0  0  0  0
 30 31  1  0  0  0  0
 31 32  1  0  0  0  0
 32 33  1  0  0  0  0
 30 34  1  0  0  0  0
 33 34  1  0  0  0  0
  1 35  1  0  0  0  0
  1 36  1  0  0  0  0
  1 37  1  0  0  0  0
  3 38  1  0  0  0  0
  3 39  1  0  0  0  0
  3 40  1  0  0  0  0
  4 41  1  0  0  0  0
  4 42  1  0  0  0  0
  5 43  1  0  0  0  0
  6 44  1  0  0  0  0
  9 45  1  0  0  0  0
 11 46  1  0  0  0  0
 14 47  1  0  0  0  0
 16 48  1  0  0  0  0
 17 49  1  0  0  0  0
 22 50  1  0  0  0  0
 24 51  1  0  0  0  0
 27 52  1  0  0  0  0
 31 54  1  0  0  0  0
 31 55  1  0  0  0  0
 32 56  1  0  0  0  0
 32 57  1  0  0  0  0
 34 58  1  0  0  0  0
 34 59  1  0  0  0  0
 31 62  1  0  0  0  0
 62 64  1  0  0  0  0
 60 66  1  0  0  0  0
 62 68  1  0  0  0  0
 63 72  1  0  0  0  0
 69 72  1  0  0  0  0
 62 73  1  0  0  0  0
 64 73  1  0  0  0  0
 70 73  1  0  0  0  0
 65 74  1  0  0  0  0
 71 74  1  0  0  0  0
 63 75  1  0  0  0  0
 69 75  1  0  0  0  0
 72 75  1  0  0  0  0
 64 76  1  0  0  0  0
 70 76  1  0  0  0  0
 73 76  1  0  0  0  0
 65 77  1  0  0  0  0
 71 77  1  0  0  0  0
 74 77  1  0  0  0  0
 65 78  1  0  0  0  0
 71 78  1  0  0  0  0
 74 78  1  0  0  0  0
 60 79  2  0  0  0  0
 30 80  1  0  0  0  0
 53 80  1  0  0  0  0
 73 80  1  0  0  0  0
 62 81  2  0  0  0  0
 63 82  2  0  0  0  0
 64 83  2  0  0  0  0
 65 84  1  0  0  0  0
 77 84  1  0  0  0  0
 65 85  1  0  0  0  0
 78 85  1  0  0  0  0
 66 86  2  0  0  0  0
 67 87  2  0  0  0  0
 68 88  2  0  0  0  0
 69 89  2  0  0  0  0
 70 90  2  0  0  0  0
 71 91  1  0  0  0  0
 77 91  1  0  0  0  0
 71 92  1  0  0  0  0
 78 92  1  0  0  0  0
M  END
