 xtb: 6.7.1pre (5071a88)
          09022620413D

 92106  0     0  0            999 V2000
    5.4389    0.8311    8.0244 C   0  0  0  0  0  0  0  0  0  0  0  0
    4.8610    2.0803    7.5770 N   0  0  0  0  0  0  0  0  0  0  0  0
    5.8561    3.1171    7.4232 C   0  0  0  0  0  0  0  0  0  0  0  0
    4.0302    1.9246    6.3830 C   0  0  0  0  0  0  0  0  0  0  0  0
    2.6989    2.7019    6.5235 C   0  0  0  0  0  0  0  0  0  0  0  0
    1.8669    2.1688    7.6443 C   0  0  0  0  0  0  0  0  0  0  0  0
    1.6214    0.8808    7.9455 C   0  0  0  0  0  0  0  0  0  0  0  0
    2.0045   -0.2263    7.2667 O   0  0  0  0  0  0  0  0  0  0  0  0
    0.9180    0.5604    9.1630 N   0  0  0  0  0  0  0  0  0  0  0  0
   -0.2805   -0.1452    9.0038 C   0  0  0  0  0  0  0  0  0  0  0  0
   -1.3691    0.4392    8.3653 C   0  0  0  0  0  0  0  0  0  0  0  0
   -2.5891   -0.2666    8.2492 C   0  0  0  0  0  0  0  0  0  0  0  0
   -3.7653    0.2234    7.6279 C   0  0  0  0  0  0  0  0  0  0  0  0
   -3.9737    1.6102    7.4578 N   0  0  0  0  0  0  0  0  0  0  0  0
   -4.3937    2.1430    6.2473 C   0  0  0  0  0  0  0  0  0  0  0  0
   -3.6582    3.1719    5.6236 C   0  0  0  0  0  0  0  0  0  0  0  0
   -3.8041    3.3756    4.2625 C   0  0  0  0  0  0  0  0  0  0  0  0
   -4.7398    2.6154    3.5658 C   0  0  0  0  0  0  0  0  0  0  0  0
   -4.6102    2.4480    2.1878 F   0  0  0  0  0  0  0  0  0  0  0  0
   -5.6854    1.8515    4.2412 C   0  0  0  0  0  0  0  0  0  0  0  0
   -6.9610    1.1397    3.3778 Cl  0  0  0  0  0  0  0  0  0  0  0  0
   -5.5224    1.6159    5.5986 C   0  0  0  0  0  0  0  0  0  0  0  0
   -4.7417   -0.6786    7.1785 N   0  0  0  0  0  0  0  0  0  0  0  0
   -4.7157   -1.8965    7.8040 C   0  0  0  0  0  0  0  0  0  0  0  0
   -3.8162   -2.3486    8.6114 N   0  0  0  0  0  0  0  0  0  0  0  0
   -2.6559   -1.6031    8.7541 C   0  0  0  0  0  0  0  0  0  0  0  0
   -1.5578   -2.1766    9.3931 C   0  0  0  0  0  0  0  0  0  0  0  0
   -0.3862   -1.4400    9.5612 C   0  0  0  0  0  0  0  0  0  0  0  0
    0.7331   -1.8601   10.2381 O   0  0  0  0  0  0  0  0  0  0  0  0
    0.9610   -3.2349   10.4626 C   0  0  0  0  0  0  0  0  0  0  0  0
    1.1375   -4.0382    9.1593 C   0  0  0  0  0  0  0  0  0  0  0  0
    2.5656   -4.6025    9.2644 C   0  0  0  0  0  0  0  0  0  0  0  0
    3.2564   -3.7274   10.1278 O   0  0  0  0  0  0  0  0  0  0  0  0
    2.3464   -3.3564   11.1349 C   0  0  0  0  0  0  0  0  0  0  0  0
    5.9262    0.9934    8.9858 H   0  0  0  0  0  0  0  0  0  0  0  0
    6.1823    0.4265    7.3187 H   0  0  0  0  0  0  0  0  0  0  0  0
    4.6426    0.0980    8.1501 H   0  0  0  0  0  0  0  0  0  0  0  0
    6.6210    2.8654    6.6700 H   0  0  0  0  0  0  0  0  0  0  0  0
    6.3532    3.2817    8.3784 H   0  0  0  0  0  0  0  0  0  0  0  0
    5.3659    4.0412    7.1233 H   0  0  0  0  0  0  0  0  0  0  0  0
    3.7956    0.8580    6.2616 H   0  0  0  0  0  0  0  0  0  0  0  0
    4.5655    2.2685    5.4714 H   0  0  0  0  0  0  0  0  0  0  0  0
    2.9332    3.7589    6.7371 H   0  0  0  0  0  0  0  0  0  0  0  0
    1.4554    2.8885    8.3459 H   0  0  0  0  0  0  0  0  0  0  0  0
    1.5384    0.0006    9.7483 H   0  0  0  0  0  0  0  0  0  0  0  0
   -1.2356    1.4246    7.9159 H   0  0  0  0  0  0  0  0  0  0  0  0
   -3.2135    2.1370    7.8786 H   0  0  0  0  0  0  0  0  0  0  0  0
   -2.8879    3.7103    6.1672 H   0  0  0  0  0  0  0  0  0  0  0  0
   -3.1675    4.0660    3.7288 H   0  0  0  0  0  0  0  0  0  0  0  0
   -6.2021    0.9590    6.1250 H   0  0  0  0  0  0  0  0  0  0  0  0
   -5.5893   -2.5274    7.6147 H   0  0  0  0  0  0  0  0  0  0  0  0
   -1.6716   -3.1787    9.7820 H   0  0  0  0  0  0  0  0  0  0  0  0
    0.1725   -3.6387   11.1100 H   0  0  0  0  0  0  0  0  0  0  0  0
    1.0781   -3.3360    8.3169 H   0  0  0  0  0  0  0  0  0  0  0  0
    0.3873   -4.8213    9.0313 H   0  0  0  0  0  0  0  0  0  0  0  0
    3.0897   -4.6199    8.2941 H   0  0  0  0  0  0  0  0  0  0  0  0
    2.5529   -5.6158    9.6979 H   0  0  0  0  0  0  0  0  0  0  0  0
    2.3140   -4.1239   11.9215 H   0  0  0  0  0  0  0  0  0  0  0  0
    2.6744   -2.4076   11.5569 H   0  0  0  0  0  0  0  0  0  0  0  0
   -1.1300   -2.8964    6.0482 Ti  0  0  0  0  0  0  0  0  0  0  0  0
    1.3169   -0.9837    5.8112 Ti  0  0  0  0  0  0  0  0  0  0  0  0
    3.1546   -1.7374    3.5369 Ti  0  0  0  0  0  0  0  0  0  0  0  0
   -3.5895   -1.0009    5.5434 Ti  0  0  0  0  0  0  0  0  0  0  0  0
    1.5572    2.0798    4.8948 Ti  0  0  0  0  0  0  0  0  0  0  0  0
   -1.2000    1.0635    4.8302 Ti  0  0  0  0  0  0  0  0  0  0  0  0
    1.7779   -4.3203    5.0528 Ti  0  0  0  0  0  0  0  0  0  0  0  0
   -0.3873   -1.4601    2.9818 Ti  0  0  0  0  0  0  0  0  0  0  0  0
    1.3688   -2.5960    1.0772 Ti  0  0  0  0  0  0  0  0  0  0  0  0
   -2.9835    0.0755    2.3688 Ti  0  0  0  0  0  0  0  0  0  0  0  0
    1.4236    0.7314    1.4387 Ti  0  0  0  0  0  0  0  0  0  0  0  0
   -0.8871   -0.1327    0.0942 Ti  0  0  0  0  0  0  0  0  0  0  0  0
   -4.9355   -1.2155    4.0392 C   0  0  0  0  0  0  0  0  0  0  0  0
    2.5874    2.2729    2.0251 C   0  0  0  0  0  0  0  0  0  0  0  0
   -1.1286    1.8122    1.8917 C   0  0  0  0  0  0  0  0  0  0  0  0
   -4.7505   -0.7060    2.9256 C   0  0  0  0  0  0  0  0  0  0  0  0
    2.3931    2.7750    3.1396 C   0  0  0  0  0  0  0  0  0  0  0  0
   -1.8541    1.7518    2.9403 C   0  0  0  0  0  0  0  0  0  0  0  0
   -0.3660    1.8573    0.7768 C   0  0  0  0  0  0  0  0  0  0  0  0
   -2.8035   -2.4947    5.8030 O   0  0  0  0  0  0  0  0  0  0  0  0
    0.4942   -2.5058    6.5111 O   0  0  0  0  0  0  0  0  0  0  0  0
    2.7672   -1.9270    5.2157 O   0  0  0  0  0  0  0  0  0  0  0  0
   -0.3098   -0.2739    5.4650 O   0  0  0  0  0  0  0  0  0  0  0  0
    2.0272    0.4597    4.7667 O   0  0  0  0  0  0  0  0  0  0  0  0
   -2.8006    0.5091    5.1639 O   0  0  0  0  0  0  0  0  0  0  0  0
   -0.1863    2.4032    5.2190 O   0  0  0  0  0  0  0  0  0  0  0  0
    0.4766   -2.5999    3.7929 O   0  0  0  0  0  0  0  0  0  0  0  0
   -0.4026   -2.2443    1.3364 O   0  0  0  0  0  0  0  0  0  0  0  0
    2.7450   -1.7594    1.7955 O   0  0  0  0  0  0  0  0  0  0  0  0
   -2.0331   -1.1149    3.2253 O   0  0  0  0  0  0  0  0  0  0  0  0
    0.5709   -0.0629    2.7206 O   0  0  0  0  0  0  0  0  0  0  0  0
   -2.5304   -0.1153    0.6957 O   0  0  0  0  0  0  0  0  0  0  0  0
    0.8673   -0.1507   -0.0358 O   0  0  0  0  0  0  0  0  0  0  0  0
  1  2  1  0  0  0  0
  2  3  1  0  0  0  0
  2  4  1  0  0  0  0
  4  5  1  0  0  0  0
  5  6  1  0  0  0  0
  6  7  2  0  0  0  0
  7  8  1  0  0  0  0
  7  9  1  0  0  0  0
  9 10  1  0  0  0  0
 10 11  4  0  0  0  0
 11 12  4  0  0  0  0
 12 13  4  0  0  0  0
 13 14  1  0  0  0  0
 14 15  1  0  0  0  0
 15 16  4  0  0  0  0
 16 17  4  0  0  0  0
 17 18  4  0  0  0  0
 18 19  1  0  0  0  0
 18 20  4  0  0  0  0
 20 21  1  0  0  0  0
 15 22  4  0  0  0  0
 20 22  4  0  0  0  0
 13 23  1  0  0  0  0
 23 24  1  0  0  0  0
 24 25  2  0  0  0  0
 12 26  1  0  0  0  0
 25 26  1  0  0  0  0
 26 27  4  0  0  0  0
 10 28  1  0  0  0  0
 27 28  4  0  0  0  0
 28 29  1  0  0  0  0
 29 30  1  0  0  0  0
 30 31  1  0  0  0  0
 31 32  1  0  0  0  0
 32 33  1  0  0  0  0
 30 34  1  0  0  0  0
 33 34  1  0  0  0  0
  1 35  1  0  0  0  0
  1 36  1  0  0  0  0
  1 37  1  0  0  0  0
  3 38  1  0  0  0  0
  3 39  1  0  0  0  0
  3 40  1  0  0  0  0
  4 41  1  0  0  0  0
  4 42  1  0  0  0  0
  5 43  1  0  0  0  0
  6 44  1  0  0  0  0
  9 45  1  0  0  0  0
 11 46  1  0  0  0  0
 14 47  1  0  0  0  0
 16 48  1  0  0  0  0
 17 49  1  0  0  0  0
 22 50  1  0  0  0  0
 24 51  1  0  0  0  0
 27 52  1  0  0  0  0
 30 53  1  0  0  0  0
 31 54  1  0  0  0  0
 31 55  1  0  0  0  0
 32 56  1  0  0  0  0
 32 57  1  0  0  0  0
 34 58  1  0  0  0  0
 34 59  1  0  0  0  0
  8 61  1  0  0  0  0
 23 63  1  0  0  0  0
  5 64  1  0  0  0  0
 62 68  1  0  0  0  0
 63 72  1  0  0  0  0
 70 73  1  0  0  0  0
 69 75  1  0  0  0  0
 72 75  3  0  0  0  0
 64 76  1  0  0  0  0
 73 76  3  0  0  0  0
 65 77  1  0  0  0  0
 69 77  1  0  0  0  0
 74 77  2  0  0  0  0
 70 78  1  0  0  0  0
 71 78  1  0  0  0  0
 74 78  4  0  0  0  0
 60 79  1  0  0  0  0
 63 79  1  0  0  0  0
 60 80  2  0  0  0  0
 61 80  1  0  0  0  0
 61 81  1  0  0  0  0
 62 81  2  0  0  0  0
 61 82  1  0  0  0  0
 65 82  1  0  0  0  0
 61 83  1  0  0  0  0
 64 83  1  0  0  0  0
 63 84  1  0  0  0  0
 65 84  1  0  0  0  0
 64 85  1  0  0  0  0
 65 85  1  0  0  0  0
 60 86  1  0  0  0  0
 67 86  1  0  0  0  0
 67 87  1  0  0  0  0
 68 87  1  0  0  0  0
 62 88  1  0  0  0  0
 68 88  1  0  0  0  0
 67 89  1  0  0  0  0
 69 89  1  0  0  0  0
 67 90  1  0  0  0  0
 70 90  1  0  0  0  0
 69 91  1  0  0  0  0
 71 91  1  0  0  0  0
 70 92  1  0  0  0  0
 71 92  1  0  0  0  0
M  END
