 xtb: 6.7.1pre (5071a88)
          08312621543D

 67 75  0     0  0            999 V2000
   -2.8612    3.2196    9.1018 C   0  0  0  0  0  0  0  0  0  0  0  0
   -2.8376    1.7627    8.7620 C   0  0  0  0  0  0  0  0  0  0  0  0
   -3.9873    1.1951    8.3655 N   0  0  0  0  0  0  0  0  0  0  0  0
   -3.9269   -0.1110    8.0435 C   0  0  0  0  0  0  0  0  0  0  0  0
   -2.7761   -0.8768    8.0875 C   0  0  0  0  0  0  0  0  0  0  0  0
   -2.8040   -2.3234    7.7031 C   0  0  0  0  0  0  0  0  0  0  0  0
   -2.4735   -3.1872    8.8275 N   0  0  0  0  0  0  0  0  0  0  0  0
   -1.6341   -0.1961    8.4904 C   0  0  0  0  0  0  0  0  0  0  0  0
   -1.6569    1.1226    8.8349 N   0  0  0  0  0  0  0  0  0  0  0  0
   -0.2951   -0.8959    8.6181 C   0  0  0  0  0  0  0  0  0  0  0  0
    0.7967    0.0594    8.6580 N   0  0  0  0  0  0  0  0  0  0  0  0
    2.0908   -0.3515    8.8381 C   0  0  0  0  0  0  0  0  0  0  0  0
    2.3901   -1.5460    8.8486 O   0  0  0  0  0  0  0  0  0  0  0  0
    3.0391    0.6570    8.9760 N   0  0  0  0  0  0  0  0  0  0  0  0
    4.4463    0.3036    9.1337 C   0  0  0  0  0  0  0  0  0  0  0  0
    5.1209    0.0657    7.7892 C   0  0  0  0  0  0  0  0  0  0  0  0
    6.8387   -0.3461    8.0138 Cl  0  0  0  0  0  0  0  0  0  0  0  0
    2.6528    2.0847    8.7414 N   0  0  0  0  0  0  0  0  0  0  0  0
    3.6097    2.8642    8.7790 O   0  0  0  0  0  0  0  0  0  0  0  0
   -3.8315    3.5011    9.5222 H   0  0  0  0  0  0  0  0  0  0  0  0
   -2.0872    3.4562    9.8382 H   0  0  0  0  0  0  0  0  0  0  0  0
   -2.6821    3.8112    8.1993 H   0  0  0  0  0  0  0  0  0  0  0  0
   -4.8785   -0.5377    7.7359 H   0  0  0  0  0  0  0  0  0  0  0  0
   -3.7934   -2.6029    7.3221 H   0  0  0  0  0  0  0  0  0  0  0  0
   -2.0998   -2.4948    6.8812 H   0  0  0  0  0  0  0  0  0  0  0  0
   -3.1860   -3.0948    9.5519 H   0  0  0  0  0  0  0  0  0  0  0  0
   -2.5061   -4.1614    8.5270 H   0  0  0  0  0  0  0  0  0  0  0  0
   -0.2703   -1.4789    9.5451 H   0  0  0  0  0  0  0  0  0  0  0  0
   -0.1107   -1.5608    7.7683 H   0  0  0  0  0  0  0  0  0  0  0  0
    0.5256    0.9828    8.9753 H   0  0  0  0  0  0  0  0  0  0  0  0
    4.9567    1.0880    9.7046 H   0  0  0  0  0  0  0  0  0  0  0  0
    4.5071   -0.6081    9.7412 H   0  0  0  0  0  0  0  0  0  0  0  0
    5.0746    0.9577    7.1570 H   0  0  0  0  0  0  0  0  0  0  0  0
    4.6490   -0.7585    7.2456 H   0  0  0  0  0  0  0  0  0  0  0  0
   -2.1419   -3.0088    2.1197 Ti  0  0  0  0  0  0  0  0  0  0  0  0
    0.2890   -1.6948    1.4324 Ti  0  0  0  0  0  0  0  0  0  0  0  0
    1.9031   -3.0677   -0.7293 Ti  0  0  0  0  0  0  0  0  0  0  0  0
   -2.5215   -0.2519    1.3037 Ti  0  0  0  0  0  0  0  0  0  0  0  0
    2.1420    0.4995    2.2044 Ti  0  0  0  0  0  0  0  0  0  0  0  0
   -0.6814    0.1896    3.6812 Ti  0  0  0  0  0  0  0  0  0  0  0  0
   -2.0368   -3.0777   -1.2005 Ti  0  0  0  0  0  0  0  0  0  0  0  0
   -0.6053   -0.7709   -2.0351 Ti  0  0  0  0  0  0  0  0  0  0  0  0
    1.9455   -1.5873   -3.4124 Ti  0  0  0  0  0  0  0  0  0  0  0  0
   -1.8782    1.7466   -1.2400 Ti  0  0  0  0  0  0  0  0  0  0  0  0
    2.4125    0.4542   -0.7742 Ti  0  0  0  0  0  0  0  0  0  0  0  0
    0.8177    1.8385   -2.9400 Ti  0  0  0  0  0  0  0  0  0  0  0  0
   -3.6784    1.2814    0.6007 C   0  0  0  0  0  0  0  0  0  0  0  0
    4.1282    0.4828    0.3873 C   0  0  0  0  0  0  0  0  0  0  0  0
    0.4555    2.2672    0.3497 C   0  0  0  0  0  0  0  0  0  0  0  0
   -3.6667    2.1188   -0.3139 C   0  0  0  0  0  0  0  0  0  0  0  0
    4.1160    0.6322    1.6214 C   0  0  0  0  0  0  0  0  0  0  0  0
   -0.6352    2.7410   -0.1189 C   0  0  0  0  0  0  0  0  0  0  0  0
    1.6301    1.7810    0.7342 C   0  0  0  0  0  0  0  0  0  0  0  0
   -3.0935   -1.9569    1.0379 O   0  0  0  0  0  0  0  0  0  0  0  0
   -0.4872   -2.6058    2.7012 O   0  0  0  0  0  0  0  0  0  0  0  0
    0.3141   -2.8889    0.1450 O   0  0  0  0  0  0  0  0  0  0  0  0
   -0.8008   -0.4359    0.9712 O   0  0  0  0  0  0  0  0  0  0  0  0
    1.9029   -1.1583    1.4694 O   0  0  0  0  0  0  0  0  0  0  0  0
   -2.3227   -0.1139    3.0248 O   0  0  0  0  0  0  0  0  0  0  0  0
    1.0138    0.4416    3.5688 O   0  0  0  0  0  0  0  0  0  0  0  0
   -1.7720   -4.5879   -1.6528 O   0  0  0  0  0  0  0  0  0  0  0  0
    0.1906   -1.1892   -3.5340 O   0  0  0  0  0  0  0  0  0  0  0  0
    2.8314   -2.1702   -1.9180 O   0  0  0  0  0  0  0  0  0  0  0  0
   -2.0546   -0.2244   -1.3375 O   0  0  0  0  0  0  0  0  0  0  0  0
    0.7685   -0.3906   -1.0637 O   0  0  0  0  0  0  0  0  0  0  0  0
   -0.9000    1.6493   -2.8186 O   0  0  0  0  0  0  0  0  0  0  0  0
    2.4153    1.3575   -2.2641 O   0  0  0  0  0  0  0  0  0  0  0  0
  1  2  1  0  0  0  0
  2  3  4  0  0  0  0
  3  4  4  0  0  0  0
  4  5  4  0  0  0  0
  5  6  1  0  0  0  0
  6  7  1  0  0  0  0
  5  8  4  0  0  0  0
  2  9  4  0  0  0  0
  8  9  4  0  0  0  0
  8 10  1  0  0  0  0
 10 11  1  0  0  0  0
 11 12  4  0  0  0  0
 12 13  2  0  0  0  0
 12 14  1  0  0  0  0
 14 15  1  0  0  0  0
 15 16  1  0  0  0  0
 16 17  1  0  0  0  0
 14 18  1  0  0  0  0
 18 19  2  0  0  0  0
  1 20  1  0  0  0  0
  1 21  1  0  0  0  0
  1 22  1  0  0  0  0
  4 23  1  0  0  0  0
  6 24  1  0  0  0  0
  6 25  1  0  0  0  0
  7 26  1  0  0  0  0
  7 27  1  0  0  0  0
 10 28  1  0  0  0  0
 10 29  1  0  0  0  0
 11 30  1  0  0  0  0
 15 31  1  0  0  0  0
 15 32  1  0  0  0  0
 16 33  1  0  0  0  0
 16 34  1  0  0  0  0
 35 41  1  0  0  0  0
 41 42  1  0  0  0  0
 37 43  1  0  0  0  0
 38 47  1  0  0  0  0
 45 48  1  0  0  0  0
 44 50  1  0  0  0  0
 47 50  3  0  0  0  0
 39 51  1  0  0  0  0
 48 51  3  0  0  0  0
 44 52  1  0  0  0  0
 49 52  2  0  0  0  0
 39 53  1  0  0  0  0
 45 53  1  0  0  0  0
 49 53  2  0  0  0  0
 35 54  1  0  0  0  0
 38 54  1  0  0  0  0
 35 55  1  0  0  0  0
 36 55  1  0  0  0  0
 36 56  1  0  0  0  0
 37 56  1  0  0  0  0
 36 57  1  0  0  0  0
 38 57  1  0  0  0  0
 36 58  1  0  0  0  0
 39 58  1  0  0  0  0
 38 59  1  0  0  0  0
 40 59  1  0  0  0  0
 39 60  1  0  0  0  0
 40 60  1  0  0  0  0
 41 61  2  0  0  0  0
 42 62  1  0  0  0  0
 43 62  1  0  0  0  0
 37 63  1  0  0  0  0
 43 63  1  0  0  0  0
 42 64  1  0  0  0  0
 44 64  1  0  0  0  0
 42 65  1  0  0  0  0
 45 65  1  0  0  0  0
 44 66  1  0  0  0  0
 46 66  1  0  0  0  0
 45 67  1  0  0  0  0
 46 67  1  0  0  0  0
M  END
