 xtb: 6.7.1pre (5071a88)
          08312620303D

 62 73  0     0  0            999 V2000
    3.8212    1.2519    3.2433 C   0  0  0  0  0  0  0  0  0  0  0  0
    2.8051    0.4252    3.9663 C   0  0  0  0  0  0  0  0  0  0  0  0
    1.6168    0.2260    3.3667 N   0  0  0  0  0  0  0  0  0  0  0  0
    0.7324   -0.5444    4.0286 C   0  0  0  0  0  0  0  0  0  0  0  0
    0.9821   -1.1262    5.2547 C   0  0  0  0  0  0  0  0  0  0  0  0
   -0.0245   -1.9823    5.9592 C   0  0  0  0  0  0  0  0  0  0  0  0
   -0.4989   -1.4067    7.2167 N   0  0  0  0  0  0  0  0  0  0  0  0
   -1.3546   -0.3030    7.3097 C   0  0  0  0  0  0  0  0  0  0  0  0
   -1.5912    0.3438    8.3272 O   0  0  0  0  0  0  0  0  0  0  0  0
   -1.9329    0.0727    6.1039 N   0  0  0  0  0  0  0  0  0  0  0  0
   -2.7905    1.2512    6.0599 C   0  0  0  0  0  0  0  0  0  0  0  0
   -3.0652    1.7102    4.6326 C   0  0  0  0  0  0  0  0  0  0  0  0
   -3.8316    0.4061    3.6823 Cl  0  0  0  0  0  0  0  0  0  0  0  0
    0.1370   -2.0026    8.4452 N   0  0  0  0  0  0  0  0  0  0  0  0
   -0.2981   -1.5713    9.5148 O   0  0  0  0  0  0  0  0  0  0  0  0
    2.2332   -0.8628    5.7731 C   0  0  0  0  0  0  0  0  0  0  0  0
    3.1574   -0.1046    5.1515 N   0  0  0  0  0  0  0  0  0  0  0  0
    4.4754    1.7661    3.9540 H   0  0  0  0  0  0  0  0  0  0  0  0
    4.4316    0.6085    2.6032 H   0  0  0  0  0  0  0  0  0  0  0  0
    3.3313    2.0069    2.6209 H   0  0  0  0  0  0  0  0  0  0  0  0
   -0.2157   -0.6776    3.5140 H   0  0  0  0  0  0  0  0  0  0  0  0
    0.4176   -2.9684    6.1534 H   0  0  0  0  0  0  0  0  0  0  0  0
   -0.8872   -2.1729    5.3109 H   0  0  0  0  0  0  0  0  0  0  0  0
   -2.2995   -0.6976    5.5620 H   0  0  0  0  0  0  0  0  0  0  0  0
   -2.3063    2.0606    6.6178 H   0  0  0  0  0  0  0  0  0  0  0  0
   -3.7238    1.0019    6.5781 H   0  0  0  0  0  0  0  0  0  0  0  0
   -2.1356    1.9790    4.1220 H   0  0  0  0  0  0  0  0  0  0  0  0
   -3.7367    2.5733    4.6236 H   0  0  0  0  0  0  0  0  0  0  0  0
    2.5511   -1.2630    6.7328 H   0  0  0  0  0  0  0  0  0  0  0  0
   -3.0000   -2.6000    1.2500 Ti  0  0  0  0  0  0  0  0  0  0  0  0
    0.0000   -2.6000    1.2500 Ti  0  0  0  0  0  0  0  0  0  0  0  0
    3.0000   -2.6000    1.2500 Ti  0  0  0  0  0  0  0  0  0  0  0  0
   -1.5000    0.0000    1.2500 Ti  0  0  0  0  0  0  0  0  0  0  0  0
    1.5000    0.0000    1.2500 Ti  0  0  0  0  0  0  0  0  0  0  0  0
    0.0000    2.6000    1.2500 Ti  0  0  0  0  0  0  0  0  0  0  0  0
   -3.0000   -2.6000   -1.2500 Ti  0  0  0  0  0  0  0  0  0  0  0  0
    0.0000   -2.6000   -1.2500 Ti  0  0  0  0  0  0  0  0  0  0  0  0
    3.0000   -2.6000   -1.2500 Ti  0  0  0  0  0  0  0  0  0  0  0  0
   -1.5000    0.0000   -1.2500 Ti  0  0  0  0  0  0  0  0  0  0  0  0
    1.5000    0.0000   -1.2500 Ti  0  0  0  0  0  0  0  0  0  0  0  0
    0.0000    2.6000   -1.2500 Ti  0  0  0  0  0  0  0  0  0  0  0  0
   -1.5000   -1.3000    0.0000 C   0  0  0  0  0  0  0  0  0  0  0  0
    1.5000   -1.3000    0.0000 C   0  0  0  0  0  0  0  0  0  0  0  0
    0.0000    1.3000    0.0000 C   0  0  0  0  0  0  0  0  0  0  0  0
   -3.0000    0.0000    0.0000 C   0  0  0  0  0  0  0  0  0  0  0  0
    3.0000    0.0000    0.0000 C   0  0  0  0  0  0  0  0  0  0  0  0
   -1.5000    2.6000    0.0000 C   0  0  0  0  0  0  0  0  0  0  0  0
    1.5000    2.6000    0.0000 C   0  0  0  0  0  0  0  0  0  0  0  0
   -3.0000   -2.6000    2.4500 O   0  0  0  0  0  0  0  0  0  0  0  0
    0.0000   -2.6000    2.4500 O   0  0  0  0  0  0  0  0  0  0  0  0
    3.0000   -2.6000    2.4500 O   0  0  0  0  0  0  0  0  0  0  0  0
   -1.5000    0.0000    2.4500 O   0  0  0  0  0  0  0  0  0  0  0  0
    1.5000    0.0000    2.4500 O   0  0  0  0  0  0  0  0  0  0  0  0
   -1.5000    2.6000    2.4500 O   0  0  0  0  0  0  0  0  0  0  0  0
    1.5000    2.6000    2.4500 O   0  0  0  0  0  0  0  0  0  0  0  0
   -3.0000   -2.6000   -2.4500 O   0  0  0  0  0  0  0  0  0  0  0  0
    0.0000   -2.6000   -2.4500 O   0  0  0  0  0  0  0  0  0  0  0  0
    3.0000   -2.6000   -2.4500 O   0  0  0  0  0  0  0  0  0  0  0  0
   -1.5000    0.0000   -2.4500 O   0  0  0  0  0  0  0  0  0  0  0  0
    1.5000    0.0000   -2.4500 O   0  0  0  0  0  0  0  0  0  0  0  0
   -1.5000    2.6000   -2.4500 O   0  0  0  0  0  0  0  0  0  0  0  0
    1.5000    2.6000   -2.4500 O   0  0  0  0  0  0  0  0  0  0  0  0
  1  2  1  0  0  0  0
  2  3  1  0  0  0  0
  3  4  1  0  0  0  0
  4  5  4  0  0  0  0
  5  6  1  0  0  0  0
  6  7  1  0  0  0  0
  7  8  1  0  0  0  0
  8  9  2  0  0  0  0
  8 10  1  0  0  0  0
 10 11  1  0  0  0  0
 11 12  1  0  0  0  0
 12 13  1  0  0  0  0
  7 14  1  0  0  0  0
 14 15  2  0  0  0  0
  5 16  4  0  0  0  0
  2 17  4  0  0  0  0
 16 17  4  0  0  0  0
  1 18  1  0  0  0  0
  1 19  1  0  0  0  0
  1 20  1  0  0  0  0
  4 21  1  0  0  0  0
  6 22  1  0  0  0  0
  6 23  1  0  0  0  0
 10 24  1  0  0  0  0
 11 25  1  0  0  0  0
 11 26  1  0  0  0  0
 12 27  1  0  0  0  0
 12 28  1  0  0  0  0
 16 29  1  0  0  0  0
 30 31  1  0  0  0  0
 31 32  1  0  0  0  0
 30 36  1  0  0  0  0
 31 37  1  0  0  0  0
 36 37  1  0  0  0  0
 32 38  1  0  0  0  0
 37 38  1  0  0  0  0
 33 42  1  0  0  0  0
 36 42  1  0  0  0  0
 39 42  1  0  0  0  0
 34 43  1  0  0  0  0
 40 43  1  0  0  0  0
 35 44  1  0  0  0  0
 41 44  1  0  0  0  0
 33 45  1  0  0  0  0
 39 45  1  0  0  0  0
 42 45  1  0  0  0  0
 34 46  1  0  0  0  0
 40 46  1  0  0  0  0
 43 46  1  0  0  0  0
 35 47  1  0  0  0  0
 41 47  1  0  0  0  0
 44 47  1  0  0  0  0
 35 48  1  0  0  0  0
 41 48  1  0  0  0  0
 44 48  1  0  0  0  0
 30 49  2  0  0  0  0
 31 50  2  0  0  0  0
 32 51  2  0  0  0  0
 33 52  2  0  0  0  0
  3 53  4  0  0  0  0
 34 53  1  0  0  0  0
 35 54  1  0  0  0  0
 47 54  1  0  0  0  0
 35 55  1  0  0  0  0
 36 56  2  0  0  0  0
 37 57  2  0  0  0  0
 38 58  2  0  0  0  0
 39 59  2  0  0  0  0
 40 60  2  0  0  0  0
 41 61  1  0  0  0  0
 47 61  1  0  0  0  0
 41 62  1  0  0  0  0
 48 62  1  0  0  0  0
M  END
