 xtb: 6.7.1pre (5071a88)
          08312621583D

 87 98  0     0  0            999 V2000
    7.5068    1.0246   10.7133 C   0  0  0  0  0  0  0  0  0  0  0  0
    6.0504    0.6604   10.7594 C   0  0  0  0  0  0  0  0  0  0  0  0
    5.6562   -0.4191   11.5618 C   0  0  0  0  0  0  0  0  0  0  0  0
    4.3108   -0.7964   11.6642 C   0  0  0  0  0  0  0  0  0  0  0  0
    3.3085   -0.1079   10.9810 C   0  0  0  0  0  0  0  0  0  0  0  0
    1.9519   -0.4366   11.0437 N   0  0  0  0  0  0  0  0  0  0  0  0
    1.2207   -1.4284   11.6914 C   0  0  0  0  0  0  0  0  0  0  0  0
    1.8021   -2.3666   12.4451 N   0  0  0  0  0  0  0  0  0  0  0  0
    0.9957   -3.2722   13.0218 C   0  0  0  0  0  0  0  0  0  0  0  0
   -0.3741   -3.2882   12.8758 C   0  0  0  0  0  0  0  0  0  0  0  0
   -1.2113   -4.3218   13.5558 C   0  0  0  0  0  0  0  0  0  0  0  0
   -0.8966   -2.2874   12.0690 C   0  0  0  0  0  0  0  0  0  0  0  0
   -2.2982   -2.2439   11.8585 N   0  0  0  0  0  0  0  0  0  0  0  0
   -3.0687   -1.1914   11.2857 C   0  0  0  0  0  0  0  0  0  0  0  0
   -2.6981    0.1844   11.4835 C   0  0  0  0  0  0  0  0  0  0  0  0
   -3.4226    1.2968   10.9982 C   0  0  0  0  0  0  0  0  0  0  0  0
   -4.5662    0.8940   10.3195 C   0  0  0  0  0  0  0  0  0  0  0  0
   -5.4931    1.7192    9.7302 C   0  0  0  0  0  0  0  0  0  0  0  0
   -5.5996    3.1934    9.6091 C   0  0  0  0  0  0  0  0  0  0  0  0
   -6.4199    0.8519    9.2007 N   0  0  0  0  0  0  0  0  0  0  0  0
   -7.6118    1.2051    8.4628 C   0  0  0  0  0  0  0  0  0  0  0  0
   -6.1592   -0.4527    9.4257 N   0  0  0  0  0  0  0  0  0  0  0  0
   -5.0071   -0.4604   10.1141 C   0  0  0  0  0  0  0  0  0  0  0  0
   -4.2652   -1.5462   10.6100 C   0  0  0  0  0  0  0  0  0  0  0  0
   -0.1032   -1.3663   11.4909 N   0  0  0  0  0  0  0  0  0  0  0  0
    3.6993    0.9777   10.1846 C   0  0  0  0  0  0  0  0  0  0  0  0
    5.0482    1.3611   10.0692 C   0  0  0  0  0  0  0  0  0  0  0  0
    5.4107    2.7712    9.0512 S   0  0  0  0  0  0  0  0  0  0  0  0
    4.1755    3.3467    8.5682 O   0  0  0  0  0  0  0  0  0  0  0  0
    6.4316    3.5783    9.6756 O   0  0  0  0  0  0  0  0  0  0  0  0
    6.1189    2.0678    7.7001 N   0  0  0  0  0  0  0  0  0  0  0  0
    7.8488    1.1653    9.6845 H   0  0  0  0  0  0  0  0  0  0  0  0
    7.6905    1.9320   11.2961 H   0  0  0  0  0  0  0  0  0  0  0  0
    8.1279    0.2283   11.1390 H   0  0  0  0  0  0  0  0  0  0  0  0
    6.3954   -0.9865   12.1250 H   0  0  0  0  0  0  0  0  0  0  0  0
    4.0704   -1.6430   12.3009 H   0  0  0  0  0  0  0  0  0  0  0  0
    1.3081    0.1442   10.5252 H   0  0  0  0  0  0  0  0  0  0  0  0
    1.5106   -4.0106   13.6306 H   0  0  0  0  0  0  0  0  0  0  0  0
   -1.9843   -3.8478   14.1694 H   0  0  0  0  0  0  0  0  0  0  0  0
   -0.6097   -4.9521   14.2195 H   0  0  0  0  0  0  0  0  0  0  0  0
   -1.6852   -4.9751   12.8163 H   0  0  0  0  0  0  0  0  0  0  0  0
   -2.6163   -3.1508   11.5329 H   0  0  0  0  0  0  0  0  0  0  0  0
   -1.7974    0.4006   12.0588 H   0  0  0  0  0  0  0  0  0  0  0  0
   -3.1058    2.3166   11.1616 H   0  0  0  0  0  0  0  0  0  0  0  0
   -4.8453    3.7051   10.2139 H   0  0  0  0  0  0  0  0  0  0  0  0
   -6.5815    3.5415    9.9457 H   0  0  0  0  0  0  0  0  0  0  0  0
   -5.4600    3.5023    8.5682 H   0  0  0  0  0  0  0  0  0  0  0  0
   -8.3196    1.6634    9.1577 H   0  0  0  0  0  0  0  0  0  0  0  0
   -8.0487    0.3051    8.0220 H   0  0  0  0  0  0  0  0  0  0  0  0
   -7.3382    1.9048    7.6695 H   0  0  0  0  0  0  0  0  0  0  0  0
   -4.5981   -2.5636   10.4680 H   0  0  0  0  0  0  0  0  0  0  0  0
    2.9366    1.5360    9.6442 H   0  0  0  0  0  0  0  0  0  0  0  0
    7.0764    2.4035    7.5969 H   0  0  0  0  0  0  0  0  0  0  0  0
    5.5331    2.2336    6.8812 H   0  0  0  0  0  0  0  0  0  0  0  0
   -2.1419   -3.0088    2.1197 Ti  0  0  0  0  0  0  0  0  0  0  0  0
    0.2890   -1.6948    1.4324 Ti  0  0  0  0  0  0  0  0  0  0  0  0
    1.9031   -3.0677   -0.7293 Ti  0  0  0  0  0  0  0  0  0  0  0  0
   -2.5215   -0.2519    1.3037 Ti  0  0  0  0  0  0  0  0  0  0  0  0
    2.1420    0.4995    2.2044 Ti  0  0  0  0  0  0  0  0  0  0  0  0
   -0.6814    0.1896    3.6812 Ti  0  0  0  0  0  0  0  0  0  0  0  0
   -2.0368   -3.0777   -1.2005 Ti  0  0  0  0  0  0  0  0  0  0  0  0
   -0.6053   -0.7709   -2.0351 Ti  0  0  0  0  0  0  0  0  0  0  0  0
    1.9455   -1.5873   -3.4124 Ti  0  0  0  0  0  0  0  0  0  0  0  0
   -1.8782    1.7466   -1.2400 Ti  0  0  0  0  0  0  0  0  0  0  0  0
    2.4125    0.4542   -0.7742 Ti  0  0  0  0  0  0  0  0  0  0  0  0
    0.8177    1.8385   -2.9400 Ti  0  0  0  0  0  0  0  0  0  0  0  0
   -3.6784    1.2814    0.6007 C   0  0  0  0  0  0  0  0  0  0  0  0
    4.1282    0.4828    0.3873 C   0  0  0  0  0  0  0  0  0  0  0  0
    0.4555    2.2672    0.3497 C   0  0  0  0  0  0  0  0  0  0  0  0
   -3.6667    2.1188   -0.3139 C   0  0  0  0  0  0  0  0  0  0  0  0
    4.1160    0.6322    1.6214 C   0  0  0  0  0  0  0  0  0  0  0  0
   -0.6352    2.7410   -0.1189 C   0  0  0  0  0  0  0  0  0  0  0  0
    1.6301    1.7810    0.7342 C   0  0  0  0  0  0  0  0  0  0  0  0
   -3.0935   -1.9569    1.0379 O   0  0  0  0  0  0  0  0  0  0  0  0
   -0.4872   -2.6058    2.7012 O   0  0  0  0  0  0  0  0  0  0  0  0
    0.3141   -2.8889    0.1450 O   0  0  0  0  0  0  0  0  0  0  0  0
   -0.8008   -0.4359    0.9712 O   0  0  0  0  0  0  0  0  0  0  0  0
    1.9029   -1.1583    1.4694 O   0  0  0  0  0  0  0  0  0  0  0  0
   -2.3227   -0.1139    3.0248 O   0  0  0  0  0  0  0  0  0  0  0  0
    1.0138    0.4416    3.5688 O   0  0  0  0  0  0  0  0  0  0  0  0
   -1.7720   -4.5879   -1.6528 O   0  0  0  0  0  0  0  0  0  0  0  0
    0.1906   -1.1892   -3.5340 O   0  0  0  0  0  0  0  0  0  0  0  0
    2.8314   -2.1702   -1.9180 O   0  0  0  0  0  0  0  0  0  0  0  0
   -2.0546   -0.2244   -1.3375 O   0  0  0  0  0  0  0  0  0  0  0  0
    0.7685   -0.3906   -1.0637 O   0  0  0  0  0  0  0  0  0  0  0  0
   -0.9000    1.6493   -2.8186 O   0  0  0  0  0  0  0  0  0  0  0  0
    2.4153    1.3575   -2.2641 O   0  0  0  0  0  0  0  0  0  0  0  0
  1  2  1  0  0  0  0
  2  3  4  0  0  0  0
  3  4  4  0  0  0  0
  4  5  4  0  0  0  0
  5  6  1  0  0  0  0
  6  7  1  0  0  0  0
  7  8  4  0  0  0  0
  8  9  4  0  0  0  0
  9 10  4  0  0  0  0
 10 11  1  0  0  0  0
 10 12  4  0  0  0  0
 12 13  1  0  0  0  0
 13 14  1  0  0  0  0
 14 15  4  0  0  0  0
 15 16  2  0  0  0  0
 16 17  4  0  0  0  0
 17 18  4  0  0  0  0
 18 19  1  0  0  0  0
 18 20  4  0  0  0  0
 20 21  1  0  0  0  0
 20 22  1  0  0  0  0
 17 23  1  0  0  0  0
 22 23  4  0  0  0  0
 14 24  4  0  0  0  0
 23 24  4  0  0  0  0
  7 25  4  0  0  0  0
 12 25  4  0  0  0  0
  5 26  4  0  0  0  0
  2 27  4  0  0  0  0
 26 27  4  0  0  0  0
 27 28  1  0  0  0  0
 28 29  2  0  0  0  0
 28 30  2  0  0  0  0
 28 31  1  0  0  0  0
  1 32  1  0  0  0  0
  1 33  1  0  0  0  0
  1 34  1  0  0  0  0
  3 35  1  0  0  0  0
  4 36  1  0  0  0  0
  6 37  1  0  0  0  0
  9 38  1  0  0  0  0
 11 39  1  0  0  0  0
 11 40  1  0  0  0  0
 11 41  1  0  0  0  0
 13 42  1  0  0  0  0
 15 43  1  0  0  0  0
 16 44  1  0  0  0  0
 19 45  1  0  0  0  0
 19 46  1  0  0  0  0
 19 47  1  0  0  0  0
 21 48  1  0  0  0  0
 21 49  1  0  0  0  0
 21 50  1  0  0  0  0
 24 51  1  0  0  0  0
 26 52  1  0  0  0  0
 31 53  1  0  0  0  0
 31 54  1  0  0  0  0
 55 61  1  0  0  0  0
 61 62  1  0  0  0  0
 57 63  1  0  0  0  0
 58 67  1  0  0  0  0
 65 68  1  0  0  0  0
 64 70  1  0  0  0  0
 67 70  3  0  0  0  0
 59 71  1  0  0  0  0
 68 71  3  0  0  0  0
 64 72  1  0  0  0  0
 69 72  2  0  0  0  0
 59 73  1  0  0  0  0
 65 73  1  0  0  0  0
 69 73  2  0  0  0  0
 55 74  1  0  0  0  0
 58 74  1  0  0  0  0
 55 75  1  0  0  0  0
 56 75  1  0  0  0  0
 56 76  1  0  0  0  0
 57 76  1  0  0  0  0
 56 77  1  0  0  0  0
 58 77  1  0  0  0  0
 56 78  1  0  0  0  0
 59 78  1  0  0  0  0
 58 79  1  0  0  0  0
 60 79  1  0  0  0  0
 59 80  1  0  0  0  0
 60 80  1  0  0  0  0
 61 81  2  0  0  0  0
 62 82  1  0  0  0  0
 63 82  1  0  0  0  0
 57 83  1  0  0  0  0
 63 83  1  0  0  0  0
 62 84  1  0  0  0  0
 64 84  1  0  0  0  0
 62 85  1  0  0  0  0
 65 85  1  0  0  0  0
 64 86  1  0  0  0  0
 66 86  1  0  0  0  0
 65 87  1  0  0  0  0
 66 87  1  0  0  0  0
M  END
