 xtb: 6.7.1pre (5071a88)
          08312621193D

 88 99  0     0  0            999 V2000
    6.1781   -2.7185    8.1240 C   0  0  0  0  0  0  0  0  0  0  0  0
    4.7798   -2.1675    8.1555 C   0  0  0  0  0  0  0  0  0  0  0  0
    3.7086   -3.0496    7.9598 C   0  0  0  0  0  0  0  0  0  0  0  0
    2.3868   -2.5890    7.9497 C   0  0  0  0  0  0  0  0  0  0  0  0
    2.0822   -1.2335    8.1272 C   0  0  0  0  0  0  0  0  0  0  0  0
    0.7434   -0.8323    8.0756 N   0  0  0  0  0  0  0  0  0  0  0  0
    0.1147    0.4133    8.0390 C   0  0  0  0  0  0  0  0  0  0  0  0
   -1.2071    0.3784    8.1142 N   0  0  0  0  0  0  0  0  0  0  0  0
   -1.8232    1.5506    8.0739 C   0  0  0  0  0  0  0  0  0  0  0  0
   -3.2124    1.6528    8.1384 N   0  0  0  0  0  0  0  0  0  0  0  0
   -4.2574    0.7316    8.2881 C   0  0  0  0  0  0  0  0  0  0  0  0
   -5.5786    1.2109    8.2280 C   0  0  0  0  0  0  0  0  0  0  0  0
   -6.6961    0.3736    8.3587 C   0  0  0  0  0  0  0  0  0  0  0  0
   -6.4442   -0.9836    8.5537 C   0  0  0  0  0  0  0  0  0  0  0  0
   -7.2811   -2.0541    8.7155 N   0  0  0  0  0  0  0  0  0  0  0  0
   -6.6496   -3.2284    8.8830 N   0  0  0  0  0  0  0  0  0  0  0  0
   -5.3515   -2.9031    8.8235 C   0  0  0  0  0  0  0  0  0  0  0  0
   -4.3084   -3.9469    8.9674 C   0  0  0  0  0  0  0  0  0  0  0  0
   -5.1620   -1.5094    8.6188 C   0  0  0  0  0  0  0  0  0  0  0  0
   -4.0574   -0.6433    8.4833 C   0  0  0  0  0  0  0  0  0  0  0  0
   -1.1895    2.7122    7.9644 N   0  0  0  0  0  0  0  0  0  0  0  0
    0.1357    2.6719    7.8836 C   0  0  0  0  0  0  0  0  0  0  0  0
    0.8374    3.8687    7.7236 N   0  0  0  0  0  0  0  0  0  0  0  0
    2.2730    3.7821    7.9577 C   0  0  0  0  0  0  0  0  0  0  0  0
    0.1590    5.0496    8.2310 C   0  0  0  0  0  0  0  0  0  0  0  0
    0.8122    1.5324    7.9224 N   0  0  0  0  0  0  0  0  0  0  0  0
    3.1505   -0.3519    8.3050 C   0  0  0  0  0  0  0  0  0  0  0  0
    4.4816   -0.8047    8.3260 C   0  0  0  0  0  0  0  0  0  0  0  0
    5.7566    0.4159    8.5758 S   0  0  0  0  0  0  0  0  0  0  0  0
    6.8828    0.1100    7.7279 O   0  0  0  0  0  0  0  0  0  0  0  0
    5.1550    1.7314    8.6022 O   0  0  0  0  0  0  0  0  0  0  0  0
    6.2002    0.1214   10.1769 N   0  0  0  0  0  0  0  0  0  0  0  0
    6.1739   -3.8116    8.2021 H   0  0  0  0  0  0  0  0  0  0  0  0
    6.6679   -2.4573    7.1812 H   0  0  0  0  0  0  0  0  0  0  0  0
    6.7696   -2.3518    8.9672 H   0  0  0  0  0  0  0  0  0  0  0  0
    3.8913   -4.1117    7.8022 H   0  0  0  0  0  0  0  0  0  0  0  0
    1.5895   -3.3111    7.7847 H   0  0  0  0  0  0  0  0  0  0  0  0
    0.0422   -1.5584    8.0924 H   0  0  0  0  0  0  0  0  0  0  0  0
   -3.4710    2.6254    8.0523 H   0  0  0  0  0  0  0  0  0  0  0  0
   -5.7591    2.2734    8.0717 H   0  0  0  0  0  0  0  0  0  0  0  0
   -7.7040    0.7711    8.3076 H   0  0  0  0  0  0  0  0  0  0  0  0
   -8.2942   -2.0502    8.7223 H   0  0  0  0  0  0  0  0  0  0  0  0
   -3.6901   -3.7479    9.8486 H   0  0  0  0  0  0  0  0  0  0  0  0
   -3.6590   -3.9613    8.0862 H   0  0  0  0  0  0  0  0  0  0  0  0
   -4.7471   -4.9437    9.0797 H   0  0  0  0  0  0  0  0  0  0  0  0
   -3.0620   -1.0654    8.5396 H   0  0  0  0  0  0  0  0  0  0  0  0
    2.4928    3.4966    8.9929 H   0  0  0  0  0  0  0  0  0  0  0  0
    2.7477    3.0684    7.2747 H   0  0  0  0  0  0  0  0  0  0  0  0
    2.7487    4.7513    7.7702 H   0  0  0  0  0  0  0  0  0  0  0  0
   -0.0001    4.9834    9.3135 H   0  0  0  0  0  0  0  0  0  0  0  0
    0.7565    5.9473    8.0356 H   0  0  0  0  0  0  0  0  0  0  0  0
   -0.8054    5.2077    7.7348 H   0  0  0  0  0  0  0  0  0  0  0  0
    2.9575    0.7078    8.4401 H   0  0  0  0  0  0  0  0  0  0  0  0
    5.9829    0.9546   10.7270 H   0  0  0  0  0  0  0  0  0  0  0  0
    5.7525   -0.7076   10.5662 H   0  0  0  0  0  0  0  0  0  0  0  0
   -2.1419   -3.0088    2.1197 Ti  0  0  0  0  0  0  0  0  0  0  0  0
    0.2890   -1.6948    1.4324 Ti  0  0  0  0  0  0  0  0  0  0  0  0
    1.9031   -3.0677   -0.7293 Ti  0  0  0  0  0  0  0  0  0  0  0  0
   -2.5215   -0.2519    1.3037 Ti  0  0  0  0  0  0  0  0  0  0  0  0
    2.1420    0.4995    2.2044 Ti  0  0  0  0  0  0  0  0  0  0  0  0
   -0.6814    0.1896    3.6812 Ti  0  0  0  0  0  0  0  0  0  0  0  0
   -2.0368   -3.0777   -1.2005 Ti  0  0  0  0  0  0  0  0  0  0  0  0
   -0.6053   -0.7709   -2.0351 Ti  0  0  0  0  0  0  0  0  0  0  0  0
    1.9455   -1.5873   -3.4124 Ti  0  0  0  0  0  0  0  0  0  0  0  0
   -1.8782    1.7466   -1.2400 Ti  0  0  0  0  0  0  0  0  0  0  0  0
    2.4125    0.4542   -0.7742 Ti  0  0  0  0  0  0  0  0  0  0  0  0
    0.8177    1.8385   -2.9400 Ti  0  0  0  0  0  0  0  0  0  0  0  0
   -3.6784    1.2814    0.6007 C   0  0  0  0  0  0  0  0  0  0  0  0
    4.1282    0.4828    0.3873 C   0  0  0  0  0  0  0  0  0  0  0  0
    0.4555    2.2672    0.3497 C   0  0  0  0  0  0  0  0  0  0  0  0
   -3.6667    2.1188   -0.3139 C   0  0  0  0  0  0  0  0  0  0  0  0
    4.1160    0.6322    1.6214 C   0  0  0  0  0  0  0  0  0  0  0  0
   -0.6352    2.7410   -0.1189 C   0  0  0  0  0  0  0  0  0  0  0  0
    1.6301    1.7810    0.7342 C   0  0  0  0  0  0  0  0  0  0  0  0
   -3.0935   -1.9569    1.0379 O   0  0  0  0  0  0  0  0  0  0  0  0
   -0.4872   -2.6058    2.7012 O   0  0  0  0  0  0  0  0  0  0  0  0
    0.3141   -2.8889    0.1450 O   0  0  0  0  0  0  0  0  0  0  0  0
   -0.8008   -0.4359    0.9712 O   0  0  0  0  0  0  0  0  0  0  0  0
    1.9029   -1.1583    1.4694 O   0  0  0  0  0  0  0  0  0  0  0  0
   -2.3227   -0.1139    3.0248 O   0  0  0  0  0  0  0  0  0  0  0  0
    1.0138    0.4416    3.5688 O   0  0  0  0  0  0  0  0  0  0  0  0
   -1.7720   -4.5879   -1.6528 O   0  0  0  0  0  0  0  0  0  0  0  0
    0.1906   -1.1892   -3.5340 O   0  0  0  0  0  0  0  0  0  0  0  0
    2.8314   -2.1702   -1.9180 O   0  0  0  0  0  0  0  0  0  0  0  0
   -2.0546   -0.2244   -1.3375 O   0  0  0  0  0  0  0  0  0  0  0  0
    0.7685   -0.3906   -1.0637 O   0  0  0  0  0  0  0  0  0  0  0  0
   -0.9000    1.6493   -2.8186 O   0  0  0  0  0  0  0  0  0  0  0  0
    2.4153    1.3575   -2.2641 O   0  0  0  0  0  0  0  0  0  0  0  0
  1  2  1  0  0  0  0
  2  3  4  0  0  0  0
  3  4  4  0  0  0  0
  4  5  4  0  0  0  0
  5  6  1  0  0  0  0
  6  7  1  0  0  0  0
  7  8  4  0  0  0  0
  8  9  4  0  0  0  0
  9 10  1  0  0  0  0
 10 11  1  0  0  0  0
 11 12  4  0  0  0  0
 12 13  2  0  0  0  0
 13 14  4  0  0  0  0
 14 15  1  0  0  0  0
 15 16  1  0  0  0  0
 16 17  2  0  0  0  0
 17 18  1  0  0  0  0
 14 19  4  0  0  0  0
 17 19  4  0  0  0  0
 11 20  4  0  0  0  0
 19 20  4  0  0  0  0
  9 21  4  0  0  0  0
 21 22  4  0  0  0  0
 22 23  1  0  0  0  0
 23 24  1  0  0  0  0
 23 25  1  0  0  0  0
  7 26  4  0  0  0  0
 22 26  4  0  0  0  0
  5 27  4  0  0  0  0
  2 28  4  0  0  0  0
 27 28  4  0  0  0  0
 28 29  1  0  0  0  0
 29 30  2  0  0  0  0
 29 31  2  0  0  0  0
 29 32  1  0  0  0  0
  1 33  1  0  0  0  0
  1 34  1  0  0  0  0
  1 35  1  0  0  0  0
  3 36  1  0  0  0  0
  4 37  1  0  0  0  0
  6 38  1  0  0  0  0
 10 39  1  0  0  0  0
 12 40  1  0  0  0  0
 13 41  1  0  0  0  0
 15 42  1  0  0  0  0
 18 43  1  0  0  0  0
 18 44  1  0  0  0  0
 18 45  1  0  0  0  0
 20 46  1  0  0  0  0
 24 47  1  0  0  0  0
 24 48  1  0  0  0  0
 24 49  1  0  0  0  0
 25 50  1  0  0  0  0
 25 51  1  0  0  0  0
 25 52  1  0  0  0  0
 27 53  1  0  0  0  0
 32 54  1  0  0  0  0
 32 55  1  0  0  0  0
 56 62  1  0  0  0  0
 62 63  1  0  0  0  0
 58 64  1  0  0  0  0
 59 68  1  0  0  0  0
 66 69  1  0  0  0  0
 65 71  1  0  0  0  0
 68 71  3  0  0  0  0
 60 72  1  0  0  0  0
 69 72  3  0  0  0  0
 65 73  1  0  0  0  0
 70 73  2  0  0  0  0
 60 74  1  0  0  0  0
 66 74  1  0  0  0  0
 70 74  2  0  0  0  0
 56 75  1  0  0  0  0
 59 75  1  0  0  0  0
 56 76  1  0  0  0  0
 57 76  1  0  0  0  0
 57 77  1  0  0  0  0
 58 77  1  0  0  0  0
 57 78  1  0  0  0  0
 59 78  1  0  0  0  0
 57 79  1  0  0  0  0
 60 79  1  0  0  0  0
 59 80  1  0  0  0  0
 61 80  1  0  0  0  0
 60 81  1  0  0  0  0
 61 81  1  0  0  0  0
 62 82  2  0  0  0  0
 63 83  1  0  0  0  0
 64 83  1  0  0  0  0
 58 84  1  0  0  0  0
 64 84  1  0  0  0  0
 63 85  1  0  0  0  0
 65 85  1  0  0  0  0
 63 86  1  0  0  0  0
 66 86  1  0  0  0  0
 65 87  1  0  0  0  0
 67 87  1  0  0  0  0
 66 88  1  0  0  0  0
 67 88  1  0  0  0  0
M  END
