 xtb: 6.7.1pre (5071a88)
          08312620383D

 88101  0     0  0            999 V2000
    6.1781   -2.7185    5.2301 C   0  0  0  0  0  0  0  0  0  0  0  0
    4.7798   -2.1675    5.2616 C   0  0  0  0  0  0  0  0  0  0  0  0
    3.7086   -3.0496    5.0659 C   0  0  0  0  0  0  0  0  0  0  0  0
    2.3868   -2.5890    5.0558 C   0  0  0  0  0  0  0  0  0  0  0  0
    2.0822   -1.2335    5.2333 C   0  0  0  0  0  0  0  0  0  0  0  0
    0.7434   -0.8323    5.1817 N   0  0  0  0  0  0  0  0  0  0  0  0
    0.1147    0.4133    5.1450 C   0  0  0  0  0  0  0  0  0  0  0  0
   -1.2071    0.3784    5.2202 N   0  0  0  0  0  0  0  0  0  0  0  0
   -1.8232    1.5506    5.1800 C   0  0  0  0  0  0  0  0  0  0  0  0
   -3.2124    1.6528    5.2445 N   0  0  0  0  0  0  0  0  0  0  0  0
   -4.2574    0.7316    5.3942 C   0  0  0  0  0  0  0  0  0  0  0  0
   -5.5786    1.2109    5.3341 C   0  0  0  0  0  0  0  0  0  0  0  0
   -6.6961    0.3736    5.4647 C   0  0  0  0  0  0  0  0  0  0  0  0
   -6.4442   -0.9836    5.6597 C   0  0  0  0  0  0  0  0  0  0  0  0
   -7.2811   -2.0541    5.8216 N   0  0  0  0  0  0  0  0  0  0  0  0
   -6.6496   -3.2284    5.9891 N   0  0  0  0  0  0  0  0  0  0  0  0
   -5.3515   -2.9031    5.9296 C   0  0  0  0  0  0  0  0  0  0  0  0
   -4.3084   -3.9469    6.0734 C   0  0  0  0  0  0  0  0  0  0  0  0
   -5.1620   -1.5094    5.7249 C   0  0  0  0  0  0  0  0  0  0  0  0
   -4.0574   -0.6433    5.5894 C   0  0  0  0  0  0  0  0  0  0  0  0
   -1.1895    2.7122    5.0704 N   0  0  0  0  0  0  0  0  0  0  0  0
    0.1357    2.6719    4.9897 C   0  0  0  0  0  0  0  0  0  0  0  0
    0.8374    3.8687    4.8296 N   0  0  0  0  0  0  0  0  0  0  0  0
    2.2730    3.7821    5.0637 C   0  0  0  0  0  0  0  0  0  0  0  0
    0.1590    5.0496    5.3370 C   0  0  0  0  0  0  0  0  0  0  0  0
    0.8122    1.5324    5.0285 N   0  0  0  0  0  0  0  0  0  0  0  0
    3.1505   -0.3519    5.4110 C   0  0  0  0  0  0  0  0  0  0  0  0
    4.4816   -0.8047    5.4321 C   0  0  0  0  0  0  0  0  0  0  0  0
    5.7566    0.4159    5.6819 S   0  0  0  0  0  0  0  0  0  0  0  0
    6.8828    0.1100    4.8340 O   0  0  0  0  0  0  0  0  0  0  0  0
    5.1550    1.7314    5.7083 O   0  0  0  0  0  0  0  0  0  0  0  0
    6.2002    0.1214    7.2830 N   0  0  0  0  0  0  0  0  0  0  0  0
    6.1739   -3.8116    5.3081 H   0  0  0  0  0  0  0  0  0  0  0  0
    6.6679   -2.4573    4.2873 H   0  0  0  0  0  0  0  0  0  0  0  0
    6.7696   -2.3518    6.0733 H   0  0  0  0  0  0  0  0  0  0  0  0
    3.8913   -4.1117    4.9082 H   0  0  0  0  0  0  0  0  0  0  0  0
    1.5895   -3.3111    4.8908 H   0  0  0  0  0  0  0  0  0  0  0  0
    0.0422   -1.5584    5.1985 H   0  0  0  0  0  0  0  0  0  0  0  0
   -3.4710    2.6254    5.1584 H   0  0  0  0  0  0  0  0  0  0  0  0
   -5.7591    2.2734    5.1778 H   0  0  0  0  0  0  0  0  0  0  0  0
   -7.7040    0.7711    5.4137 H   0  0  0  0  0  0  0  0  0  0  0  0
   -8.2942   -2.0502    5.8283 H   0  0  0  0  0  0  0  0  0  0  0  0
   -3.6901   -3.7479    6.9546 H   0  0  0  0  0  0  0  0  0  0  0  0
   -3.6590   -3.9613    5.1922 H   0  0  0  0  0  0  0  0  0  0  0  0
   -4.7471   -4.9437    6.1857 H   0  0  0  0  0  0  0  0  0  0  0  0
   -3.0620   -1.0654    5.6457 H   0  0  0  0  0  0  0  0  0  0  0  0
    2.4928    3.4966    6.0989 H   0  0  0  0  0  0  0  0  0  0  0  0
    2.7477    3.0684    4.3808 H   0  0  0  0  0  0  0  0  0  0  0  0
    2.7487    4.7513    4.8762 H   0  0  0  0  0  0  0  0  0  0  0  0
   -0.0001    4.9834    6.4196 H   0  0  0  0  0  0  0  0  0  0  0  0
    0.7565    5.9473    5.1417 H   0  0  0  0  0  0  0  0  0  0  0  0
   -0.8054    5.2077    4.8408 H   0  0  0  0  0  0  0  0  0  0  0  0
    2.9575    0.7078    5.5461 H   0  0  0  0  0  0  0  0  0  0  0  0
    5.9829    0.9546    7.8331 H   0  0  0  0  0  0  0  0  0  0  0  0
    5.7525   -0.7076    7.6723 H   0  0  0  0  0  0  0  0  0  0  0  0
   -3.0000   -2.6000    1.2500 Ti  0  0  0  0  0  0  0  0  0  0  0  0
    0.0000   -2.6000    1.2500 Ti  0  0  0  0  0  0  0  0  0  0  0  0
    3.0000   -2.6000    1.2500 Ti  0  0  0  0  0  0  0  0  0  0  0  0
   -1.5000    0.0000    1.2500 Ti  0  0  0  0  0  0  0  0  0  0  0  0
    1.5000    0.0000    1.2500 Ti  0  0  0  0  0  0  0  0  0  0  0  0
    0.0000    2.6000    1.2500 Ti  0  0  0  0  0  0  0  0  0  0  0  0
   -3.0000   -2.6000   -1.2500 Ti  0  0  0  0  0  0  0  0  0  0  0  0
    0.0000   -2.6000   -1.2500 Ti  0  0  0  0  0  0  0  0  0  0  0  0
    3.0000   -2.6000   -1.2500 Ti  0  0  0  0  0  0  0  0  0  0  0  0
   -1.5000    0.0000   -1.2500 Ti  0  0  0  0  0  0  0  0  0  0  0  0
    1.5000    0.0000   -1.2500 Ti  0  0  0  0  0  0  0  0  0  0  0  0
    0.0000    2.6000   -1.2500 Ti  0  0  0  0  0  0  0  0  0  0  0  0
   -1.5000   -1.3000    0.0000 C   0  0  0  0  0  0  0  0  0  0  0  0
    1.5000   -1.3000    0.0000 C   0  0  0  0  0  0  0  0  0  0  0  0
    0.0000    1.3000    0.0000 C   0  0  0  0  0  0  0  0  0  0  0  0
   -3.0000    0.0000    0.0000 C   0  0  0  0  0  0  0  0  0  0  0  0
    3.0000    0.0000    0.0000 C   0  0  0  0  0  0  0  0  0  0  0  0
   -1.5000    2.6000    0.0000 C   0  0  0  0  0  0  0  0  0  0  0  0
    1.5000    2.6000    0.0000 C   0  0  0  0  0  0  0  0  0  0  0  0
   -3.0000   -2.6000    2.4500 O   0  0  0  0  0  0  0  0  0  0  0  0
    0.0000   -2.6000    2.4500 O   0  0  0  0  0  0  0  0  0  0  0  0
    3.0000   -2.6000    2.4500 O   0  0  0  0  0  0  0  0  0  0  0  0
   -1.5000    0.0000    2.4500 O   0  0  0  0  0  0  0  0  0  0  0  0
    1.5000    0.0000    2.4500 O   0  0  0  0  0  0  0  0  0  0  0  0
   -1.5000    2.6000    2.4500 O   0  0  0  0  0  0  0  0  0  0  0  0
    1.5000    2.6000    2.4500 O   0  0  0  0  0  0  0  0  0  0  0  0
   -3.0000   -2.6000   -2.4500 O   0  0  0  0  0  0  0  0  0  0  0  0
    0.0000   -2.6000   -2.4500 O   0  0  0  0  0  0  0  0  0  0  0  0
    3.0000   -2.6000   -2.4500 O   0  0  0  0  0  0  0  0  0  0  0  0
   -1.5000    0.0000   -2.4500 O   0  0  0  0  0  0  0  0  0  0  0  0
    1.5000    0.0000   -2.4500 O   0  0  0  0  0  0  0  0  0  0  0  0
   -1.5000    2.6000   -2.4500 O   0  0  0  0  0  0  0  0  0  0  0  0
    1.5000    2.6000   -2.4500 O   0  0  0  0  0  0  0  0  0  0  0  0
  1  2  1  0  0  0  0
  2  3  4  0  0  0  0
  3  4  4  0  0  0  0
  4  5  4  0  0  0  0
  5  6  1  0  0  0  0
  6  7  1  0  0  0  0
  7  8  4  0  0  0  0
  8  9  4  0  0  0  0
  9 10  1  0  0  0  0
 10 11  1  0  0  0  0
 11 12  4  0  0  0  0
 12 13  2  0  0  0  0
 13 14  4  0  0  0  0
 14 15  4  0  0  0  0
 15 16  1  0  0  0  0
 16 17  2  0  0  0  0
 17 18  1  0  0  0  0
 14 19  4  0  0  0  0
 17 19  4  0  0  0  0
 11 20  4  0  0  0  0
 19 20  4  0  0  0  0
  9 21  4  0  0  0  0
 21 22  4  0  0  0  0
 22 23  1  0  0  0  0
 23 24  1  0  0  0  0
 23 25  1  0  0  0  0
  7 26  4  0  0  0  0
 22 26  4  0  0  0  0
  5 27  4  0  0  0  0
  2 28  4  0  0  0  0
 27 28  4  0  0  0  0
 28 29  1  0  0  0  0
 29 30  2  0  0  0  0
 29 31  2  0  0  0  0
 29 32  1  0  0  0  0
  1 33  1  0  0  0  0
  1 34  1  0  0  0  0
  1 35  1  0  0  0  0
  3 36  1  0  0  0  0
  4 37  1  0  0  0  0
  6 38  1  0  0  0  0
 10 39  1  0  0  0  0
 12 40  1  0  0  0  0
 13 41  1  0  0  0  0
 15 42  1  0  0  0  0
 18 43  1  0  0  0  0
 18 44  1  0  0  0  0
 18 45  1  0  0  0  0
 20 46  1  0  0  0  0
 24 47  1  0  0  0  0
 24 48  1  0  0  0  0
 24 49  1  0  0  0  0
 25 50  1  0  0  0  0
 25 51  1  0  0  0  0
 25 52  1  0  0  0  0
 27 53  1  0  0  0  0
 32 54  1  0  0  0  0
 32 55  1  0  0  0  0
 56 57  1  0  0  0  0
 57 58  1  0  0  0  0
 56 62  1  0  0  0  0
 57 63  1  0  0  0  0
 62 63  1  0  0  0  0
 58 64  1  0  0  0  0
 63 64  1  0  0  0  0
 59 68  1  0  0  0  0
 65 68  1  0  0  0  0
 60 69  1  0  0  0  0
 66 69  1  0  0  0  0
 61 70  1  0  0  0  0
 67 70  1  0  0  0  0
 59 71  1  0  0  0  0
 65 71  1  0  0  0  0
 68 71  1  0  0  0  0
 60 72  1  0  0  0  0
 66 72  1  0  0  0  0
 69 72  1  0  0  0  0
 61 73  1  0  0  0  0
 67 73  1  0  0  0  0
 70 73  1  0  0  0  0
 61 74  1  0  0  0  0
 67 74  1  0  0  0  0
 70 74  1  0  0  0  0
 56 75  2  0  0  0  0
 57 76  2  0  0  0  0
 58 77  2  0  0  0  0
 59 78  2  0  0  0  0
 60 79  2  0  0  0  0
 61 80  1  0  0  0  0
 73 80  1  0  0  0  0
 61 81  1  0  0  0  0
 74 81  1  0  0  0  0
 62 82  2  0  0  0  0
 63 83  2  0  0  0  0
 64 84  2  0  0  0  0
 65 85  2  0  0  0  0
 66 86  2  0  0  0  0
 67 87  1  0  0  0  0
 73 87  1  0  0  0  0
 67 88  1  0  0  0  0
 74 88  1  0  0  0  0
M  END
