 xtb: 6.7.1pre (5071a88)
          08312621193D

 81 92  0     0  0            999 V2000
   -1.1037   -3.9005    8.3567 C   0  0  0  0  0  0  0  0  0  0  0  0
   -1.3838   -2.4321    8.4238 C   0  0  0  0  0  0  0  0  0  0  0  0
   -0.3577   -1.6180    8.6472 N   0  0  0  0  0  0  0  0  0  0  0  0
   -0.6763   -0.3260    8.7119 C   0  0  0  0  0  0  0  0  0  0  0  0
   -1.9152    0.1554    8.5872 N   0  0  0  0  0  0  0  0  0  0  0  0
   -2.8836   -0.7333    8.3837 C   0  0  0  0  0  0  0  0  0  0  0  0
   -2.6513   -2.0406    8.2988 N   0  0  0  0  0  0  0  0  0  0  0  0
   -4.1757   -0.2759    8.2277 N   0  0  0  0  0  0  0  0  0  0  0  0
   -5.2969   -1.2068    8.3864 C   0  0  0  0  0  0  0  0  0  0  0  0
   -6.3181   -0.6344    9.3840 C   0  0  0  0  0  0  0  0  0  0  0  0
   -6.8408    0.6508    9.0138 O   0  0  0  0  0  0  0  0  0  0  0  0
   -5.9249    1.4409    8.2397 C   0  0  0  0  0  0  0  0  0  0  0  0
   -4.4476    1.1317    8.5260 C   0  0  0  0  0  0  0  0  0  0  0  0
    0.4154    0.6441    8.9479 C   0  0  0  0  0  0  0  0  0  0  0  0
    0.1615    2.0214    9.0605 C   0  0  0  0  0  0  0  0  0  0  0  0
    1.1985    2.9293    9.2706 C   0  0  0  0  0  0  0  0  0  0  0  0
    2.5116    2.4772    9.3801 C   0  0  0  0  0  0  0  0  0  0  0  0
    3.4571    3.4057    9.5936 F   0  0  0  0  0  0  0  0  0  0  0  0
    2.8363    1.1126    9.2949 C   0  0  0  0  0  0  0  0  0  0  0  0
    4.1395    0.5818    9.3818 N   0  0  0  0  0  0  0  0  0  0  0  0
    4.3244   -0.3735   10.5032 C   0  0  0  0  0  0  0  0  0  0  0  0
    5.6842   -1.0803   10.3680 C   0  0  0  0  0  0  0  0  0  0  0  0
    6.7697   -0.1420   10.3026 O   0  0  0  0  0  0  0  0  0  0  0  0
    6.5935    0.7357    9.1778 C   0  0  0  0  0  0  0  0  0  0  0  0
    5.2776    1.5236    9.2834 C   0  0  0  0  0  0  0  0  0  0  0  0
    1.7616    0.2263    9.0637 C   0  0  0  0  0  0  0  0  0  0  0  0
   -1.1846   -4.3370    9.3564 H   0  0  0  0  0  0  0  0  0  0  0  0
   -1.8182   -4.3994    7.6947 H   0  0  0  0  0  0  0  0  0  0  0  0
   -0.0957   -4.0839    7.9721 H   0  0  0  0  0  0  0  0  0  0  0  0
   -5.7739   -1.3318    7.4073 H   0  0  0  0  0  0  0  0  0  0  0  0
   -4.9943   -2.1993    8.7375 H   0  0  0  0  0  0  0  0  0  0  0  0
   -7.1684   -1.3165    9.4849 H   0  0  0  0  0  0  0  0  0  0  0  0
   -5.8626   -0.5323   10.3762 H   0  0  0  0  0  0  0  0  0  0  0  0
   -6.1387    2.4932    8.4520 H   0  0  0  0  0  0  0  0  0  0  0  0
   -6.1527    1.2677    7.1812 H   0  0  0  0  0  0  0  0  0  0  0  0
   -4.2338    1.3346    9.5830 H   0  0  0  0  0  0  0  0  0  0  0  0
   -3.8247    1.7882    7.9072 H   0  0  0  0  0  0  0  0  0  0  0  0
   -0.8557    2.4008    8.9774 H   0  0  0  0  0  0  0  0  0  0  0  0
    0.9931    3.9922    9.3513 H   0  0  0  0  0  0  0  0  0  0  0  0
    3.5431   -1.1403   10.5279 H   0  0  0  0  0  0  0  0  0  0  0  0
    4.2928    0.1785   11.4515 H   0  0  0  0  0  0  0  0  0  0  0  0
    5.8552   -1.7234   11.2372 H   0  0  0  0  0  0  0  0  0  0  0  0
    5.7088   -1.7143    9.4735 H   0  0  0  0  0  0  0  0  0  0  0  0
    6.6274    0.1441    8.2551 H   0  0  0  0  0  0  0  0  0  0  0  0
    7.4409    1.4283    9.1632 H   0  0  0  0  0  0  0  0  0  0  0  0
    5.1807    2.1588    8.3957 H   0  0  0  0  0  0  0  0  0  0  0  0
    5.3193    2.1515   10.1820 H   0  0  0  0  0  0  0  0  0  0  0  0
    1.9865   -0.8327    8.9393 H   0  0  0  0  0  0  0  0  0  0  0  0
   -2.1419   -3.0088    2.1197 Ti  0  0  0  0  0  0  0  0  0  0  0  0
    0.2890   -1.6948    1.4324 Ti  0  0  0  0  0  0  0  0  0  0  0  0
    1.9031   -3.0677   -0.7293 Ti  0  0  0  0  0  0  0  0  0  0  0  0
   -2.5215   -0.2519    1.3037 Ti  0  0  0  0  0  0  0  0  0  0  0  0
    2.1420    0.4995    2.2044 Ti  0  0  0  0  0  0  0  0  0  0  0  0
   -0.6814    0.1896    3.6812 Ti  0  0  0  0  0  0  0  0  0  0  0  0
   -2.0368   -3.0777   -1.2005 Ti  0  0  0  0  0  0  0  0  0  0  0  0
   -0.6053   -0.7709   -2.0351 Ti  0  0  0  0  0  0  0  0  0  0  0  0
    1.9455   -1.5873   -3.4124 Ti  0  0  0  0  0  0  0  0  0  0  0  0
   -1.8782    1.7466   -1.2400 Ti  0  0  0  0  0  0  0  0  0  0  0  0
    2.4125    0.4542   -0.7742 Ti  0  0  0  0  0  0  0  0  0  0  0  0
    0.8177    1.8385   -2.9400 Ti  0  0  0  0  0  0  0  0  0  0  0  0
   -3.6784    1.2814    0.6007 C   0  0  0  0  0  0  0  0  0  0  0  0
    4.1282    0.4828    0.3873 C   0  0  0  0  0  0  0  0  0  0  0  0
    0.4555    2.2672    0.3497 C   0  0  0  0  0  0  0  0  0  0  0  0
   -3.6667    2.1188   -0.3139 C   0  0  0  0  0  0  0  0  0  0  0  0
    4.1160    0.6322    1.6214 C   0  0  0  0  0  0  0  0  0  0  0  0
   -0.6352    2.7410   -0.1189 C   0  0  0  0  0  0  0  0  0  0  0  0
    1.6301    1.7810    0.7342 C   0  0  0  0  0  0  0  0  0  0  0  0
   -3.0935   -1.9569    1.0379 O   0  0  0  0  0  0  0  0  0  0  0  0
   -0.4872   -2.6058    2.7012 O   0  0  0  0  0  0  0  0  0  0  0  0
    0.3141   -2.8889    0.1450 O   0  0  0  0  0  0  0  0  0  0  0  0
   -0.8008   -0.4359    0.9712 O   0  0  0  0  0  0  0  0  0  0  0  0
    1.9029   -1.1583    1.4694 O   0  0  0  0  0  0  0  0  0  0  0  0
   -2.3227   -0.1139    3.0248 O   0  0  0  0  0  0  0  0  0  0  0  0
    1.0138    0.4416    3.5688 O   0  0  0  0  0  0  0  0  0  0  0  0
   -1.7720   -4.5879   -1.6528 O   0  0  0  0  0  0  0  0  0  0  0  0
    0.1906   -1.1892   -3.5340 O   0  0  0  0  0  0  0  0  0  0  0  0
    2.8314   -2.1702   -1.9180 O   0  0  0  0  0  0  0  0  0  0  0  0
   -2.0546   -0.2244   -1.3375 O   0  0  0  0  0  0  0  0  0  0  0  0
    0.7685   -0.3906   -1.0637 O   0  0  0  0  0  0  0  0  0  0  0  0
   -0.9000    1.6493   -2.8186 O   0  0  0  0  0  0  0  0  0  0  0  0
    2.4153    1.3575   -2.2641 O   0  0  0  0  0  0  0  0  0  0  0  0
  1  2  1  0  0  0  0
  2  3  4  0  0  0  0
  3  4  4  0  0  0  0
  4  5  4  0  0  0  0
  5  6  4  0  0  0  0
  2  7  4  0  0  0  0
  6  7  4  0  0  0  0
  6  8  4  0  0  0  0
  8  9  1  0  0  0  0
  9 10  1  0  0  0  0
 10 11  1  0  0  0  0
 11 12  1  0  0  0  0
  8 13  1  0  0  0  0
 12 13  1  0  0  0  0
  4 14  1  0  0  0  0
 14 15  4  0  0  0  0
 15 16  4  0  0  0  0
 16 17  4  0  0  0  0
 17 18  1  0  0  0  0
 17 19  4  0  0  0  0
 19 20  1  0  0  0  0
 20 21  1  0  0  0  0
 21 22  1  0  0  0  0
 22 23  1  0  0  0  0
 23 24  1  0  0  0  0
 20 25  1  0  0  0  0
 24 25  1  0  0  0  0
 14 26  4  0  0  0  0
 19 26  4  0  0  0  0
  1 27  1  0  0  0  0
  1 28  1  0  0  0  0
  1 29  1  0  0  0  0
  9 30  1  0  0  0  0
  9 31  1  0  0  0  0
 10 32  1  0  0  0  0
 10 33  1  0  0  0  0
 12 34  1  0  0  0  0
 12 35  1  0  0  0  0
 13 36  1  0  0  0  0
 13 37  1  0  0  0  0
 15 38  1  0  0  0  0
 16 39  1  0  0  0  0
 21 40  1  0  0  0  0
 21 41  1  0  0  0  0
 22 42  1  0  0  0  0
 22 43  1  0  0  0  0
 24 44  1  0  0  0  0
 24 45  1  0  0  0  0
 25 46  1  0  0  0  0
 25 47  1  0  0  0  0
 26 48  1  0  0  0  0
 49 55  1  0  0  0  0
 55 56  1  0  0  0  0
 51 57  1  0  0  0  0
 52 61  1  0  0  0  0
 59 62  1  0  0  0  0
 58 64  1  0  0  0  0
 61 64  3  0  0  0  0
 53 65  1  0  0  0  0
 62 65  3  0  0  0  0
 58 66  1  0  0  0  0
 63 66  2  0  0  0  0
 53 67  1  0  0  0  0
 59 67  1  0  0  0  0
 63 67  2  0  0  0  0
 49 68  1  0  0  0  0
 52 68  1  0  0  0  0
 49 69  1  0  0  0  0
 50 69  1  0  0  0  0
 50 70  1  0  0  0  0
 51 70  1  0  0  0  0
 50 71  1  0  0  0  0
 52 71  1  0  0  0  0
 50 72  1  0  0  0  0
 53 72  1  0  0  0  0
 52 73  1  0  0  0  0
 54 73  1  0  0  0  0
 53 74  1  0  0  0  0
 54 74  1  0  0  0  0
 55 75  2  0  0  0  0
 56 76  1  0  0  0  0
 57 76  1  0  0  0  0
 51 77  1  0  0  0  0
 57 77  1  0  0  0  0
 56 78  1  0  0  0  0
 58 78  1  0  0  0  0
 56 79  1  0  0  0  0
 59 79  1  0  0  0  0
 58 80  1  0  0  0  0
 60 80  1  0  0  0  0
 59 81  1  0  0  0  0
 60 81  1  0  0  0  0
M  END
