 xtb: 6.7.1pre (5071a88)
          08312620553D

 81 93  0     0  0            999 V2000
   -1.1037   -3.9005    4.9128 C   0  0  0  0  0  0  0  0  0  0  0  0
   -1.3838   -2.4321    4.9799 C   0  0  0  0  0  0  0  0  0  0  0  0
   -0.3577   -1.6180    5.2034 N   0  0  0  0  0  0  0  0  0  0  0  0
   -0.6763   -0.3260    5.2681 C   0  0  0  0  0  0  0  0  0  0  0  0
   -1.9152    0.1554    5.1434 N   0  0  0  0  0  0  0  0  0  0  0  0
   -2.8836   -0.7333    4.9398 C   0  0  0  0  0  0  0  0  0  0  0  0
   -2.6513   -2.0406    4.8549 N   0  0  0  0  0  0  0  0  0  0  0  0
   -4.1757   -0.2759    4.7839 N   0  0  0  0  0  0  0  0  0  0  0  0
   -5.2969   -1.2068    4.9426 C   0  0  0  0  0  0  0  0  0  0  0  0
   -6.3181   -0.6344    5.9402 C   0  0  0  0  0  0  0  0  0  0  0  0
   -6.8408    0.6508    5.5700 O   0  0  0  0  0  0  0  0  0  0  0  0
   -5.9249    1.4409    4.7959 C   0  0  0  0  0  0  0  0  0  0  0  0
   -4.4476    1.1317    5.0821 C   0  0  0  0  0  0  0  0  0  0  0  0
    0.4154    0.6441    5.5041 C   0  0  0  0  0  0  0  0  0  0  0  0
    0.1615    2.0214    5.6167 C   0  0  0  0  0  0  0  0  0  0  0  0
    1.1985    2.9293    5.8268 C   0  0  0  0  0  0  0  0  0  0  0  0
    2.5116    2.4772    5.9362 C   0  0  0  0  0  0  0  0  0  0  0  0
    3.4571    3.4057    6.1497 F   0  0  0  0  0  0  0  0  0  0  0  0
    2.8363    1.1126    5.8511 C   0  0  0  0  0  0  0  0  0  0  0  0
    4.1395    0.5818    5.9380 N   0  0  0  0  0  0  0  0  0  0  0  0
    4.3244   -0.3735    7.0594 C   0  0  0  0  0  0  0  0  0  0  0  0
    5.6842   -1.0803    6.9242 C   0  0  0  0  0  0  0  0  0  0  0  0
    6.7697   -0.1420    6.8588 O   0  0  0  0  0  0  0  0  0  0  0  0
    6.5935    0.7357    5.7340 C   0  0  0  0  0  0  0  0  0  0  0  0
    5.2776    1.5236    5.8396 C   0  0  0  0  0  0  0  0  0  0  0  0
    1.7616    0.2263    5.6199 C   0  0  0  0  0  0  0  0  0  0  0  0
   -1.1846   -4.3370    5.9125 H   0  0  0  0  0  0  0  0  0  0  0  0
   -1.8182   -4.3994    4.2509 H   0  0  0  0  0  0  0  0  0  0  0  0
   -0.0957   -4.0839    4.5282 H   0  0  0  0  0  0  0  0  0  0  0  0
   -5.7739   -1.3318    3.9635 H   0  0  0  0  0  0  0  0  0  0  0  0
   -4.9943   -2.1993    5.2937 H   0  0  0  0  0  0  0  0  0  0  0  0
   -7.1684   -1.3165    6.0411 H   0  0  0  0  0  0  0  0  0  0  0  0
   -5.8626   -0.5323    6.9324 H   0  0  0  0  0  0  0  0  0  0  0  0
   -6.1387    2.4932    5.0081 H   0  0  0  0  0  0  0  0  0  0  0  0
   -6.1527    1.2677    3.7374 H   0  0  0  0  0  0  0  0  0  0  0  0
   -4.2338    1.3346    6.1392 H   0  0  0  0  0  0  0  0  0  0  0  0
   -3.8247    1.7882    4.4634 H   0  0  0  0  0  0  0  0  0  0  0  0
   -0.8557    2.4008    5.5336 H   0  0  0  0  0  0  0  0  0  0  0  0
    0.9931    3.9922    5.9074 H   0  0  0  0  0  0  0  0  0  0  0  0
    3.5431   -1.1403    7.0841 H   0  0  0  0  0  0  0  0  0  0  0  0
    4.2928    0.1785    8.0077 H   0  0  0  0  0  0  0  0  0  0  0  0
    5.8552   -1.7234    7.7934 H   0  0  0  0  0  0  0  0  0  0  0  0
    5.7088   -1.7143    6.0297 H   0  0  0  0  0  0  0  0  0  0  0  0
    6.6274    0.1441    4.8112 H   0  0  0  0  0  0  0  0  0  0  0  0
    7.4409    1.4283    5.7194 H   0  0  0  0  0  0  0  0  0  0  0  0
    5.1807    2.1588    4.9518 H   0  0  0  0  0  0  0  0  0  0  0  0
    5.3193    2.1515    6.7382 H   0  0  0  0  0  0  0  0  0  0  0  0
    1.9865   -0.8327    5.4955 H   0  0  0  0  0  0  0  0  0  0  0  0
   -3.0000   -2.6000    1.2500 Ti  0  0  0  0  0  0  0  0  0  0  0  0
    0.0000   -2.6000    1.2500 Ti  0  0  0  0  0  0  0  0  0  0  0  0
    3.0000   -2.6000    1.2500 Ti  0  0  0  0  0  0  0  0  0  0  0  0
   -1.5000    0.0000    1.2500 Ti  0  0  0  0  0  0  0  0  0  0  0  0
    1.5000    0.0000    1.2500 Ti  0  0  0  0  0  0  0  0  0  0  0  0
    0.0000    2.6000    1.2500 Ti  0  0  0  0  0  0  0  0  0  0  0  0
   -3.0000   -2.6000   -1.2500 Ti  0  0  0  0  0  0  0  0  0  0  0  0
    0.0000   -2.6000   -1.2500 Ti  0  0  0  0  0  0  0  0  0  0  0  0
    3.0000   -2.6000   -1.2500 Ti  0  0  0  0  0  0  0  0  0  0  0  0
   -1.5000    0.0000   -1.2500 Ti  0  0  0  0  0  0  0  0  0  0  0  0
    1.5000    0.0000   -1.2500 Ti  0  0  0  0  0  0  0  0  0  0  0  0
    0.0000    2.6000   -1.2500 Ti  0  0  0  0  0  0  0  0  0  0  0  0
   -1.5000   -1.3000    0.0000 C   0  0  0  0  0  0  0  0  0  0  0  0
    1.5000   -1.3000    0.0000 C   0  0  0  0  0  0  0  0  0  0  0  0
    0.0000    1.3000    0.0000 C   0  0  0  0  0  0  0  0  0  0  0  0
   -3.0000    0.0000    0.0000 C   0  0  0  0  0  0  0  0  0  0  0  0
    3.0000    0.0000    0.0000 C   0  0  0  0  0  0  0  0  0  0  0  0
   -1.5000    2.6000    0.0000 C   0  0  0  0  0  0  0  0  0  0  0  0
    1.5000    2.6000    0.0000 C   0  0  0  0  0  0  0  0  0  0  0  0
   -3.0000   -2.6000    2.4500 O   0  0  0  0  0  0  0  0  0  0  0  0
    0.0000   -2.6000    2.4500 O   0  0  0  0  0  0  0  0  0  0  0  0
    3.0000   -2.6000    2.4500 O   0  0  0  0  0  0  0  0  0  0  0  0
   -1.5000    0.0000    2.4500 O   0  0  0  0  0  0  0  0  0  0  0  0
    1.5000    0.0000    2.4500 O   0  0  0  0  0  0  0  0  0  0  0  0
   -1.5000    2.6000    2.4500 O   0  0  0  0  0  0  0  0  0  0  0  0
    1.5000    2.6000    2.4500 O   0  0  0  0  0  0  0  0  0  0  0  0
   -3.0000   -2.6000   -2.4500 O   0  0  0  0  0  0  0  0  0  0  0  0
    0.0000   -2.6000   -2.4500 O   0  0  0  0  0  0  0  0  0  0  0  0
    3.0000   -2.6000   -2.4500 O   0  0  0  0  0  0  0  0  0  0  0  0
   -1.5000    0.0000   -2.4500 O   0  0  0  0  0  0  0  0  0  0  0  0
    1.5000    0.0000   -2.4500 O   0  0  0  0  0  0  0  0  0  0  0  0
   -1.5000    2.6000   -2.4500 O   0  0  0  0  0  0  0  0  0  0  0  0
    1.5000    2.6000   -2.4500 O   0  0  0  0  0  0  0  0  0  0  0  0
  1  2  1  0  0  0  0
  2  3  4  0  0  0  0
  3  4  4  0  0  0  0
  4  5  4  0  0  0  0
  5  6  4  0  0  0  0
  2  7  4  0  0  0  0
  6  7  4  0  0  0  0
  6  8  4  0  0  0  0
  8  9  1  0  0  0  0
  9 10  1  0  0  0  0
 10 11  1  0  0  0  0
 11 12  1  0  0  0  0
  8 13  1  0  0  0  0
 12 13  1  0  0  0  0
  4 14  1  0  0  0  0
 14 15  4  0  0  0  0
 15 16  4  0  0  0  0
 16 17  4  0  0  0  0
 17 18  1  0  0  0  0
 17 19  4  0  0  0  0
 19 20  1  0  0  0  0
 20 21  1  0  0  0  0
 21 22  1  0  0  0  0
 22 23  1  0  0  0  0
 23 24  1  0  0  0  0
 20 25  1  0  0  0  0
 24 25  1  0  0  0  0
 14 26  4  0  0  0  0
 19 26  4  0  0  0  0
  1 27  1  0  0  0  0
  1 28  1  0  0  0  0
  1 29  1  0  0  0  0
  9 30  1  0  0  0  0
  9 31  1  0  0  0  0
 10 32  1  0  0  0  0
 10 33  1  0  0  0  0
 12 34  1  0  0  0  0
 12 35  1  0  0  0  0
 13 36  1  0  0  0  0
 13 37  1  0  0  0  0
 15 38  1  0  0  0  0
 16 39  1  0  0  0  0
 21 40  1  0  0  0  0
 21 41  1  0  0  0  0
 22 42  1  0  0  0  0
 22 43  1  0  0  0  0
 24 44  1  0  0  0  0
 24 45  1  0  0  0  0
 25 46  1  0  0  0  0
 25 47  1  0  0  0  0
 26 48  1  0  0  0  0
 50 51  1  0  0  0  0
 49 55  1  0  0  0  0
 50 56  1  0  0  0  0
 55 56  1  0  0  0  0
 51 57  1  0  0  0  0
 56 57  1  0  0  0  0
 52 61  1  0  0  0  0
 58 61  1  0  0  0  0
 53 62  1  0  0  0  0
 59 62  1  0  0  0  0
 54 63  1  0  0  0  0
 60 63  1  0  0  0  0
 52 64  1  0  0  0  0
 58 64  1  0  0  0  0
 61 64  1  0  0  0  0
 53 65  1  0  0  0  0
 59 65  1  0  0  0  0
 62 65  1  0  0  0  0
 54 66  1  0  0  0  0
 60 66  1  0  0  0  0
 63 66  1  0  0  0  0
 54 67  1  0  0  0  0
 60 67  1  0  0  0  0
 63 67  1  0  0  0  0
 49 68  2  0  0  0  0
 50 69  2  0  0  0  0
 51 70  2  0  0  0  0
 52 71  2  0  0  0  0
 53 72  2  0  0  0  0
 54 73  1  0  0  0  0
 66 73  1  0  0  0  0
 54 74  1  0  0  0  0
 67 74  1  0  0  0  0
 55 75  2  0  0  0  0
 56 76  2  0  0  0  0
 57 77  2  0  0  0  0
 58 78  2  0  0  0  0
 59 79  2  0  0  0  0
 60 80  1  0  0  0  0
 66 80  1  0  0  0  0
 60 81  1  0  0  0  0
 67 81  1  0  0  0  0
M  END
