 xtb: 6.7.1pre (5071a88)
          08312621533D

 75 86  0     0  0            999 V2000
   -0.0052   -2.9048    7.8319 C   0  0  0  0  0  0  0  0  0  0  0  0
   -0.2497   -1.8778    8.8994 C   0  0  0  0  0  0  0  0  0  0  0  0
    0.8727   -1.3981    9.4806 N   0  0  0  0  0  0  0  0  0  0  0  0
    0.7353   -0.4760   10.4447 C   0  0  0  0  0  0  0  0  0  0  0  0
   -0.4492   -0.0008   10.8538 N   0  0  0  0  0  0  0  0  0  0  0  0
   -1.5612   -0.4817   10.2627 C   0  0  0  0  0  0  0  0  0  0  0  0
   -1.5172   -1.4511    9.2698 C   0  0  0  0  0  0  0  0  0  0  0  0
   -2.7835   -1.9700    8.6714 C   0  0  0  0  0  0  0  0  0  0  0  0
   -3.4503   -1.0302    7.9396 F   0  0  0  0  0  0  0  0  0  0  0  0
   -3.6743   -2.4410    9.5909 F   0  0  0  0  0  0  0  0  0  0  0  0
   -2.6103   -3.0139    7.8075 F   0  0  0  0  0  0  0  0  0  0  0  0
   -2.8010    0.0468   10.6729 N   0  0  0  0  0  0  0  0  0  0  0  0
   -2.9290    0.1178   12.1534 C   0  0  0  0  0  0  0  0  0  0  0  0
   -2.7213    1.5457   12.6799 C   0  0  0  0  0  0  0  0  0  0  0  0
   -3.6613    2.4890   12.1386 O   0  0  0  0  0  0  0  0  0  0  0  0
   -4.0853    2.1624   10.8054 C   0  0  0  0  0  0  0  0  0  0  0  0
   -3.0373    1.3620   10.0181 C   0  0  0  0  0  0  0  0  0  0  0  0
    1.9503    0.0446   11.0838 C   0  0  0  0  0  0  0  0  0  0  0  0
    1.8922    1.0390   12.0683 C   0  0  0  0  0  0  0  0  0  0  0  0
    2.9369    1.6017   12.7355 N   0  0  0  0  0  0  0  0  0  0  0  0
    4.1220    1.0979   12.3522 C   0  0  0  0  0  0  0  0  0  0  0  0
    5.3309    1.4862   12.8606 N   0  0  0  0  0  0  0  0  0  0  0  0
    6.3384    0.7779   12.2554 C   0  0  0  0  0  0  0  0  0  0  0  0
    5.7606   -0.0798   11.3420 C   0  0  0  0  0  0  0  0  0  0  0  0
    4.3543    0.1172   11.3971 C   0  0  0  0  0  0  0  0  0  0  0  0
    3.2336   -0.4245   10.7444 C   0  0  0  0  0  0  0  0  0  0  0  0
   -0.4200   -3.8727    8.1290 H   0  0  0  0  0  0  0  0  0  0  0  0
    1.0689   -3.0447    7.6670 H   0  0  0  0  0  0  0  0  0  0  0  0
   -0.4416   -2.5837    6.8812 H   0  0  0  0  0  0  0  0  0  0  0  0
   -2.2584   -0.5855   12.6630 H   0  0  0  0  0  0  0  0  0  0  0  0
   -3.9515   -0.1984   12.3951 H   0  0  0  0  0  0  0  0  0  0  0  0
   -2.8344    1.5638   13.7685 H   0  0  0  0  0  0  0  0  0  0  0  0
   -1.7135    1.9092   12.4516 H   0  0  0  0  0  0  0  0  0  0  0  0
   -5.0236    1.6005   10.8808 H   0  0  0  0  0  0  0  0  0  0  0  0
   -4.3061    3.1039   10.2927 H   0  0  0  0  0  0  0  0  0  0  0  0
   -3.3946    1.2013    8.9954 H   0  0  0  0  0  0  0  0  0  0  0  0
   -2.1118    1.9518    9.9686 H   0  0  0  0  0  0  0  0  0  0  0  0
    0.9293    1.4469   12.3742 H   0  0  0  0  0  0  0  0  0  0  0  0
    5.4353    2.1920   13.5746 H   0  0  0  0  0  0  0  0  0  0  0  0
    7.3724    0.9452   12.5260 H   0  0  0  0  0  0  0  0  0  0  0  0
    6.2927   -0.7732   10.7038 H   0  0  0  0  0  0  0  0  0  0  0  0
    3.3658   -1.1949    9.9899 H   0  0  0  0  0  0  0  0  0  0  0  0
   -2.1419   -3.0088    2.1197 Ti  0  0  0  0  0  0  0  0  0  0  0  0
    0.2890   -1.6948    1.4324 Ti  0  0  0  0  0  0  0  0  0  0  0  0
    1.9031   -3.0677   -0.7293 Ti  0  0  0  0  0  0  0  0  0  0  0  0
   -2.5215   -0.2519    1.3037 Ti  0  0  0  0  0  0  0  0  0  0  0  0
    2.1420    0.4995    2.2044 Ti  0  0  0  0  0  0  0  0  0  0  0  0
   -0.6814    0.1896    3.6812 Ti  0  0  0  0  0  0  0  0  0  0  0  0
   -2.0368   -3.0777   -1.2005 Ti  0  0  0  0  0  0  0  0  0  0  0  0
   -0.6053   -0.7709   -2.0351 Ti  0  0  0  0  0  0  0  0  0  0  0  0
    1.9455   -1.5873   -3.4124 Ti  0  0  0  0  0  0  0  0  0  0  0  0
   -1.8782    1.7466   -1.2400 Ti  0  0  0  0  0  0  0  0  0  0  0  0
    2.4125    0.4542   -0.7742 Ti  0  0  0  0  0  0  0  0  0  0  0  0
    0.8177    1.8385   -2.9400 Ti  0  0  0  0  0  0  0  0  0  0  0  0
   -3.6784    1.2814    0.6007 C   0  0  0  0  0  0  0  0  0  0  0  0
    4.1282    0.4828    0.3873 C   0  0  0  0  0  0  0  0  0  0  0  0
    0.4555    2.2672    0.3497 C   0  0  0  0  0  0  0  0  0  0  0  0
   -3.6667    2.1188   -0.3139 C   0  0  0  0  0  0  0  0  0  0  0  0
    4.1160    0.6322    1.6214 C   0  0  0  0  0  0  0  0  0  0  0  0
   -0.6352    2.7410   -0.1189 C   0  0  0  0  0  0  0  0  0  0  0  0
    1.6301    1.7810    0.7342 C   0  0  0  0  0  0  0  0  0  0  0  0
   -3.0935   -1.9569    1.0379 O   0  0  0  0  0  0  0  0  0  0  0  0
   -0.4872   -2.6058    2.7012 O   0  0  0  0  0  0  0  0  0  0  0  0
    0.3141   -2.8889    0.1450 O   0  0  0  0  0  0  0  0  0  0  0  0
   -0.8008   -0.4359    0.9712 O   0  0  0  0  0  0  0  0  0  0  0  0
    1.9029   -1.1583    1.4694 O   0  0  0  0  0  0  0  0  0  0  0  0
   -2.3227   -0.1139    3.0248 O   0  0  0  0  0  0  0  0  0  0  0  0
    1.0138    0.4416    3.5688 O   0  0  0  0  0  0  0  0  0  0  0  0
   -1.7720   -4.5879   -1.6528 O   0  0  0  0  0  0  0  0  0  0  0  0
    0.1906   -1.1892   -3.5340 O   0  0  0  0  0  0  0  0  0  0  0  0
    2.8314   -2.1702   -1.9180 O   0  0  0  0  0  0  0  0  0  0  0  0
   -2.0546   -0.2244   -1.3375 O   0  0  0  0  0  0  0  0  0  0  0  0
    0.7685   -0.3906   -1.0637 O   0  0  0  0  0  0  0  0  0  0  0  0
   -0.9000    1.6493   -2.8186 O   0  0  0  0  0  0  0  0  0  0  0  0
    2.4153    1.3575   -2.2641 O   0  0  0  0  0  0  0  0  0  0  0  0
  1  2  1  0  0  0  0
  2  3  4  0  0  0  0
  3  4  4  0  0  0  0
  4  5  4  0  0  0  0
  5  6  4  0  0  0  0
  2  7  4  0  0  0  0
  6  7  4  0  0  0  0
  7  8  1  0  0  0  0
  8  9  1  0  0  0  0
  8 10  1  0  0  0  0
  8 11  1  0  0  0  0
  6 12  1  0  0  0  0
 12 13  1  0  0  0  0
 13 14  1  0  0  0  0
 14 15  1  0  0  0  0
 15 16  1  0  0  0  0
 12 17  1  0  0  0  0
 16 17  1  0  0  0  0
  4 18  1  0  0  0  0
 18 19  4  0  0  0  0
 19 20  4  0  0  0  0
 20 21  4  0  0  0  0
 21 22  1  0  0  0  0
 22 23  1  0  0  0  0
 23 24  2  0  0  0  0
 21 25  4  0  0  0  0
 24 25  4  0  0  0  0
 18 26  4  0  0  0  0
 25 26  4  0  0  0  0
  1 27  1  0  0  0  0
  1 28  1  0  0  0  0
  1 29  1  0  0  0  0
 13 30  1  0  0  0  0
 13 31  1  0  0  0  0
 14 32  1  0  0  0  0
 14 33  1  0  0  0  0
 16 34  1  0  0  0  0
 16 35  1  0  0  0  0
 17 36  1  0  0  0  0
 17 37  1  0  0  0  0
 19 38  1  0  0  0  0
 22 39  1  0  0  0  0
 23 40  1  0  0  0  0
 24 41  1  0  0  0  0
 26 42  1  0  0  0  0
 43 49  1  0  0  0  0
 49 50  1  0  0  0  0
 45 51  1  0  0  0  0
 46 55  1  0  0  0  0
 53 56  1  0  0  0  0
 52 58  1  0  0  0  0
 55 58  3  0  0  0  0
 47 59  1  0  0  0  0
 56 59  3  0  0  0  0
 52 60  1  0  0  0  0
 57 60  2  0  0  0  0
 47 61  1  0  0  0  0
 53 61  1  0  0  0  0
 57 61  2  0  0  0  0
 43 62  1  0  0  0  0
 46 62  1  0  0  0  0
 43 63  1  0  0  0  0
 44 63  1  0  0  0  0
 44 64  1  0  0  0  0
 45 64  1  0  0  0  0
 44 65  1  0  0  0  0
 46 65  1  0  0  0  0
 44 66  1  0  0  0  0
 47 66  1  0  0  0  0
 46 67  1  0  0  0  0
 48 67  1  0  0  0  0
 47 68  1  0  0  0  0
 48 68  1  0  0  0  0
 49 69  2  0  0  0  0
 50 70  1  0  0  0  0
 51 70  1  0  0  0  0
 45 71  1  0  0  0  0
 51 71  1  0  0  0  0
 50 72  1  0  0  0  0
 52 72  1  0  0  0  0
 50 73  1  0  0  0  0
 53 73  1  0  0  0  0
 52 74  1  0  0  0  0
 54 74  1  0  0  0  0
 53 75  1  0  0  0  0
 54 75  1  0  0  0  0
M  END
