 xtb: 6.7.1pre (5071a88)
          09022620123D

 33 39  0     0  0            999 V2000
   -1.8166   -2.1414    4.6735 Ti  0  0  0  0  0  0  0  0  0  0  0  0
    0.3673   -1.2638    2.8148 Ti  0  0  0  0  0  0  0  0  0  0  0  0
    1.5512   -3.4180    1.2257 Ti  0  0  0  0  0  0  0  0  0  0  0  0
   -2.3980    0.0428    2.3367 Ti  0  0  0  0  0  0  0  0  0  0  0  0
    2.3180    0.9651    2.9388 Ti  0  0  0  0  0  0  0  0  0  0  0  0
   -0.5496    1.3398    4.3774 Ti  0  0  0  0  0  0  0  0  0  0  0  0
   -2.2207   -2.7400    1.0894 Ti  0  0  0  0  0  0  0  0  0  0  0  0
   -0.3937   -1.3061   -0.6931 Ti  0  0  0  0  0  0  0  0  0  0  0  0
    1.8344   -2.6296   -1.8101 Ti  0  0  0  0  0  0  0  0  0  0  0  0
   -1.7146    1.4204   -0.6447 Ti  0  0  0  0  0  0  0  0  0  0  0  0
    2.5308    0.1798    0.0238 Ti  0  0  0  0  0  0  0  0  0  0  0  0
    0.8608    1.1195   -2.3052 Ti  0  0  0  0  0  0  0  0  0  0  0  0
   -3.5803    1.3215    1.2673 C   0  0  0  0  0  0  0  0  0  0  0  0
    4.2700    0.3516    1.1365 C   0  0  0  0  0  0  0  0  0  0  0  0
    0.6208    2.2550    0.8276 C   0  0  0  0  0  0  0  0  0  0  0  0
   -3.5416    1.8974    0.1704 C   0  0  0  0  0  0  0  0  0  0  0  0
    4.2721    0.8216    2.2869 C   0  0  0  0  0  0  0  0  0  0  0  0
   -0.5375    2.6043    0.4293 C   0  0  0  0  0  0  0  0  0  0  0  0
    1.8525    1.8810    1.1810 C   0  0  0  0  0  0  0  0  0  0  0  0
   -2.9648   -1.6602    2.2670 O   0  0  0  0  0  0  0  0  0  0  0  0
   -0.1557   -1.3723    4.4673 O   0  0  0  0  0  0  0  0  0  0  0  0
    0.2363   -2.9195    2.3637 O   0  0  0  0  0  0  0  0  0  0  0  0
   -0.7037   -0.1893    2.0103 O   0  0  0  0  0  0  0  0  0  0  0  0
    1.9985   -0.7898    2.6877 O   0  0  0  0  0  0  0  0  0  0  0  0
   -2.2062    0.6143    3.9687 O   0  0  0  0  0  0  0  0  0  0  0  0
    1.1546    1.5114    4.1536 O   0  0  0  0  0  0  0  0  0  0  0  0
   -0.9006   -2.8719   -0.0788 O   0  0  0  0  0  0  0  0  0  0  0  0
    0.3209   -1.7126   -2.2407 O   0  0  0  0  0  0  0  0  0  0  0  0
    2.4716   -3.1632   -0.2390 O   0  0  0  0  0  0  0  0  0  0  0  0
   -1.8096   -0.3686   -0.4125 O   0  0  0  0  0  0  0  0  0  0  0  0
    0.9817   -0.6881    0.1388 O   0  0  0  0  0  0  0  0  0  0  0  0
   -0.8346    1.4173   -2.1840 O   0  0  0  0  0  0  0  0  0  0  0  0
    2.4613    0.6244   -1.6446 O   0  0  0  0  0  0  0  0  0  0  0  0
  4 13  1  0  0  0  0
 11 14  1  0  0  0  0
 10 16  1  0  0  0  0
 13 16  3  0  0  0  0
  5 17  1  0  0  0  0
 14 17  3  0  0  0  0
 10 18  1  0  0  0  0
 15 18  2  0  0  0  0
  5 19  1  0  0  0  0
 11 19  1  0  0  0  0
 15 19  2  0  0  0  0
  4 20  1  0  0  0  0
  7 20  1  0  0  0  0
  1 21  1  0  0  0  0
  2 21  1  0  0  0  0
  2 22  1  0  0  0  0
  3 22  1  0  0  0  0
  2 23  1  0  0  0  0
  4 23  1  0  0  0  0
  2 24  1  0  0  0  0
  5 24  1  0  0  0  0
  4 25  1  0  0  0  0
  6 25  1  0  0  0  0
  5 26  1  0  0  0  0
  6 26  1  0  0  0  0
  7 27  1  0  0  0  0
  8 27  1  0  0  0  0
  8 28  1  0  0  0  0
  9 28  1  0  0  0  0
  3 29  1  0  0  0  0
  9 29  1  0  0  0  0
  8 30  1  0  0  0  0
 10 30  1  0  0  0  0
  8 31  1  0  0  0  0
 11 31  1  0  0  0  0
 10 32  1  0  0  0  0
 12 32  1  0  0  0  0
 11 33  1  0  0  0  0
 12 33  1  0  0  0  0
M  END
