 xtb: 6.7.1pre (5071a88)
          08312621183D

 52 61  0     0  0            999 V2000
   -2.6600    1.0832    8.2048 C   0  0  0  0  0  0  0  0  0  0  0  0
   -1.5467    0.1559    8.2216 N   0  0  0  0  0  0  0  0  0  0  0  0
   -0.2514    0.6516    8.1809 C   0  0  0  0  0  0  0  0  0  0  0  0
    0.0102    1.8405    8.0006 O   0  0  0  0  0  0  0  0  0  0  0  0
    0.6991   -0.3184    8.3298 N   0  0  0  0  0  0  0  0  0  0  0  0
    0.4013   -1.5984    8.0521 C   0  0  0  0  0  0  0  0  0  0  0  0
   -0.7807   -2.0815    7.9510 N   0  0  0  0  0  0  0  0  0  0  0  0
   -1.8229   -1.2055    8.1136 C   0  0  0  0  0  0  0  0  0  0  0  0
   -2.9807   -1.6152    8.1333 O   0  0  0  0  0  0  0  0  0  0  0  0
    1.5612   -2.3032    7.8469 N   0  0  0  0  0  0  0  0  0  0  0  0
    2.5354   -1.4871    7.9024 N   0  0  0  0  0  0  0  0  0  0  0  0
    2.0454   -0.2028    8.0797 N   0  0  0  0  0  0  0  0  0  0  0  0
    2.7691    0.6261    9.0236 C   0  0  0  0  0  0  0  0  0  0  0  0
   -3.0428    1.1456    7.1812 H   0  0  0  0  0  0  0  0  0  0  0  0
   -3.4610    0.7219    8.8572 H   0  0  0  0  0  0  0  0  0  0  0  0
   -2.3564    2.0802    8.5359 H   0  0  0  0  0  0  0  0  0  0  0  0
    2.6613    0.2214   10.0348 H   0  0  0  0  0  0  0  0  0  0  0  0
    2.3928    1.6514    8.9874 H   0  0  0  0  0  0  0  0  0  0  0  0
    3.8268    0.6344    8.7438 H   0  0  0  0  0  0  0  0  0  0  0  0
   -2.1419   -3.0088    2.1197 Ti  0  0  0  0  0  0  0  0  0  0  0  0
    0.2890   -1.6948    1.4324 Ti  0  0  0  0  0  0  0  0  0  0  0  0
    1.9031   -3.0677   -0.7293 Ti  0  0  0  0  0  0  0  0  0  0  0  0
   -2.5215   -0.2519    1.3037 Ti  0  0  0  0  0  0  0  0  0  0  0  0
    2.1420    0.4995    2.2044 Ti  0  0  0  0  0  0  0  0  0  0  0  0
   -0.6814    0.1896    3.6812 Ti  0  0  0  0  0  0  0  0  0  0  0  0
   -2.0368   -3.0777   -1.2005 Ti  0  0  0  0  0  0  0  0  0  0  0  0
   -0.6053   -0.7709   -2.0351 Ti  0  0  0  0  0  0  0  0  0  0  0  0
    1.9455   -1.5873   -3.4124 Ti  0  0  0  0  0  0  0  0  0  0  0  0
   -1.8782    1.7466   -1.2400 Ti  0  0  0  0  0  0  0  0  0  0  0  0
    2.4125    0.4542   -0.7742 Ti  0  0  0  0  0  0  0  0  0  0  0  0
    0.8177    1.8385   -2.9400 Ti  0  0  0  0  0  0  0  0  0  0  0  0
   -3.6784    1.2814    0.6007 C   0  0  0  0  0  0  0  0  0  0  0  0
    4.1282    0.4828    0.3873 C   0  0  0  0  0  0  0  0  0  0  0  0
    0.4555    2.2672    0.3497 C   0  0  0  0  0  0  0  0  0  0  0  0
   -3.6667    2.1188   -0.3139 C   0  0  0  0  0  0  0  0  0  0  0  0
    4.1160    0.6322    1.6214 C   0  0  0  0  0  0  0  0  0  0  0  0
   -0.6352    2.7410   -0.1189 C   0  0  0  0  0  0  0  0  0  0  0  0
    1.6301    1.7810    0.7342 C   0  0  0  0  0  0  0  0  0  0  0  0
   -3.0935   -1.9569    1.0379 O   0  0  0  0  0  0  0  0  0  0  0  0
   -0.4872   -2.6058    2.7012 O   0  0  0  0  0  0  0  0  0  0  0  0
    0.3141   -2.8889    0.1450 O   0  0  0  0  0  0  0  0  0  0  0  0
   -0.8008   -0.4359    0.9712 O   0  0  0  0  0  0  0  0  0  0  0  0
    1.9029   -1.1583    1.4694 O   0  0  0  0  0  0  0  0  0  0  0  0
   -2.3227   -0.1139    3.0248 O   0  0  0  0  0  0  0  0  0  0  0  0
    1.0138    0.4416    3.5688 O   0  0  0  0  0  0  0  0  0  0  0  0
   -1.7720   -4.5879   -1.6528 O   0  0  0  0  0  0  0  0  0  0  0  0
    0.1906   -1.1892   -3.5340 O   0  0  0  0  0  0  0  0  0  0  0  0
    2.8314   -2.1702   -1.9180 O   0  0  0  0  0  0  0  0  0  0  0  0
   -2.0546   -0.2244   -1.3375 O   0  0  0  0  0  0  0  0  0  0  0  0
    0.7685   -0.3906   -1.0637 O   0  0  0  0  0  0  0  0  0  0  0  0
   -0.9000    1.6493   -2.8186 O   0  0  0  0  0  0  0  0  0  0  0  0
    2.4153    1.3575   -2.2641 O   0  0  0  0  0  0  0  0  0  0  0  0
  1  2  1  0  0  0  0
  2  3  1  0  0  0  0
  3  4  2  0  0  0  0
  3  5  1  0  0  0  0
  5  6  1  0  0  0  0
  6  7  4  0  0  0  0
  2  8  1  0  0  0  0
  7  8  1  0  0  0  0
  8  9  2  0  0  0  0
  6 10  1  0  0  0  0
 10 11  2  0  0  0  0
  5 12  1  0  0  0  0
 11 12  1  0  0  0  0
 12 13  1  0  0  0  0
  1 14  1  0  0  0  0
  1 15  1  0  0  0  0
  1 16  1  0  0  0  0
 13 17  1  0  0  0  0
 13 18  1  0  0  0  0
 13 19  1  0  0  0  0
 20 26  1  0  0  0  0
 26 27  1  0  0  0  0
 22 28  1  0  0  0  0
 23 32  1  0  0  0  0
 30 33  1  0  0  0  0
 29 35  1  0  0  0  0
 32 35  3  0  0  0  0
 24 36  1  0  0  0  0
 33 36  3  0  0  0  0
 29 37  1  0  0  0  0
 34 37  2  0  0  0  0
 24 38  1  0  0  0  0
 30 38  1  0  0  0  0
 34 38  2  0  0  0  0
 20 39  1  0  0  0  0
 23 39  1  0  0  0  0
 20 40  1  0  0  0  0
 21 40  1  0  0  0  0
 21 41  1  0  0  0  0
 22 41  1  0  0  0  0
 21 42  1  0  0  0  0
 23 42  1  0  0  0  0
 21 43  1  0  0  0  0
 24 43  1  0  0  0  0
 23 44  1  0  0  0  0
 25 44  1  0  0  0  0
 24 45  1  0  0  0  0
 25 45  1  0  0  0  0
 26 46  2  0  0  0  0
 27 47  1  0  0  0  0
 28 47  1  0  0  0  0
 22 48  1  0  0  0  0
 28 48  1  0  0  0  0
 27 49  1  0  0  0  0
 29 49  1  0  0  0  0
 27 50  1  0  0  0  0
 30 50  1  0  0  0  0
 29 51  1  0  0  0  0
 31 51  1  0  0  0  0
 30 52  1  0  0  0  0
 31 52  1  0  0  0  0
M  END
