 xtb: 6.7.1pre (5071a88)
          09012620313D

 33 40  0     0  0            999 V2000
   -1.5841   -2.3483    3.9611 Ti  0  0  0  0  0  0  0  0  0  0  0  0
    0.6422   -1.7667    2.1986 Ti  0  0  0  0  0  0  0  0  0  0  0  0
    1.5741   -3.4129   -0.0902 Ti  0  0  0  0  0  0  0  0  0  0  0  0
   -2.1455   -0.0054    2.3199 Ti  0  0  0  0  0  0  0  0  0  0  0  0
    2.7127    0.4586    2.1803 Ti  0  0  0  0  0  0  0  0  0  0  0  0
    0.2673    0.8306    4.0364 Ti  0  0  0  0  0  0  0  0  0  0  0  0
   -2.1484   -3.2661    0.6701 Ti  0  0  0  0  0  0  0  0  0  0  0  0
   -0.8431   -1.0881   -1.1215 Ti  0  0  0  0  0  0  0  0  0  0  0  0
    1.0945   -2.1091   -2.9255 Ti  0  0  0  0  0  0  0  0  0  0  0  0
   -2.0784    1.4856   -0.4186 Ti  0  0  0  0  0  0  0  0  0  0  0  0
    2.2426    0.1716   -0.7666 Ti  0  0  0  0  0  0  0  0  0  0  0  0
    0.2392    1.5200   -2.5375 Ti  0  0  0  0  0  0  0  0  0  0  0  0
   -3.5922    1.2657    1.6043 C   0  0  0  0  0  0  0  0  0  0  0  0
    4.1769    0.1631   -0.0488 C   0  0  0  0  0  0  0  0  0  0  0  0
    0.5616    1.9724    0.7851 C   0  0  0  0  0  0  0  0  0  0  0  0
   -3.7593    2.0018    0.6168 C   0  0  0  0  0  0  0  0  0  0  0  0
    4.4791    0.4286    1.1276 C   0  0  0  0  0  0  0  0  0  0  0  0
   -0.6809    2.2730    0.7472 C   0  0  0  0  0  0  0  0  0  0  0  0
    1.8573    1.6548    0.7770 C   0  0  0  0  0  0  0  0  0  0  0  0
   -2.8374   -1.5855    2.9287 O   0  0  0  0  0  0  0  0  0  0  0  0
    0.1807   -2.2231    3.8390 O   0  0  0  0  0  0  0  0  0  0  0  0
    0.5316   -3.2932    1.3672 O   0  0  0  0  0  0  0  0  0  0  0  0
   -0.6249   -0.7249    1.7113 O   0  0  0  0  0  0  0  0  0  0  0  0
    2.1997   -1.2046    1.7745 O   0  0  0  0  0  0  0  0  0  0  0  0
   -1.4718    0.6524    3.7751 O   0  0  0  0  0  0  0  0  0  0  0  0
    1.9562    0.7790    3.7242 O   0  0  0  0  0  0  0  0  0  0  0  0
   -1.1177   -2.7769   -0.7095 O   0  0  0  0  0  0  0  0  0  0  0  0
   -0.4952   -1.2298   -2.8280 O   0  0  0  0  0  0  0  0  0  0  0  0
    2.1290   -2.7616   -1.6266 O   0  0  0  0  0  0  0  0  0  0  0  0
   -2.2236   -0.3523   -0.3756 O   0  0  0  0  0  0  0  0  0  0  0  0
    0.6712   -0.6112   -0.4898 O   0  0  0  0  0  0  0  0  0  0  0  0
   -1.4038    1.6799   -2.0256 O   0  0  0  0  0  0  0  0  0  0  0  0
    1.9047    0.9145   -2.2995 O   0  0  0  0  0  0  0  0  0  0  0  0
  1  7  1  0  0  0  0
  4 13  1  0  0  0  0
 11 14  1  0  0  0  0
 10 16  1  0  0  0  0
 13 16  3  0  0  0  0
  5 17  1  0  0  0  0
 14 17  3  0  0  0  0
 10 18  1  0  0  0  0
 15 18  2  0  0  0  0
  5 19  1  0  0  0  0
 11 19  1  0  0  0  0
 15 19  2  0  0  0  0
  1 20  1  0  0  0  0
  4 20  1  0  0  0  0
  1 21  1  0  0  0  0
  2 21  1  0  0  0  0
  2 22  1  0  0  0  0
  3 22  1  0  0  0  0
  2 23  1  0  0  0  0
  4 23  1  0  0  0  0
  2 24  1  0  0  0  0
  5 24  1  0  0  0  0
  4 25  1  0  0  0  0
  6 25  1  0  0  0  0
  5 26  1  0  0  0  0
  6 26  1  0  0  0  0
  7 27  1  0  0  0  0
  8 27  1  0  0  0  0
  8 28  1  0  0  0  0
  9 28  1  0  0  0  0
  3 29  1  0  0  0  0
  9 29  1  0  0  0  0
  8 30  1  0  0  0  0
 10 30  1  0  0  0  0
  8 31  1  0  0  0  0
 11 31  1  0  0  0  0
 10 32  1  0  0  0  0
 12 32  1  0  0  0  0
 11 33  1  0  0  0  0
 12 33  1  0  0  0  0
M  END
