 xtb: 6.7.1pre (5071a88)
          08312621543D

 53 62  0     0  0            999 V2000
   -3.4191    0.5105    7.9472 C   0  0  0  0  0  0  0  0  0  0  0  0
   -2.0000    0.2614    8.0957 N   0  0  0  0  0  0  0  0  0  0  0  0
   -1.5643   -0.8495    8.7956 C   0  0  0  0  0  0  0  0  0  0  0  0
   -2.2200   -1.7189    9.3496 O   0  0  0  0  0  0  0  0  0  0  0  0
   -0.1855   -0.9041    8.8213 N   0  0  0  0  0  0  0  0  0  0  0  0
    0.6194   -1.8398    9.4080 C   0  0  0  0  0  0  0  0  0  0  0  0
    1.8907   -1.5645    9.2258 N   0  0  0  0  0  0  0  0  0  0  0  0
    1.9188   -0.3903    8.4830 C   0  0  0  0  0  0  0  0  0  0  0  0
    0.6204    0.0260    8.2280 C   0  0  0  0  0  0  0  0  0  0  0  0
    0.0678    1.0686    7.5721 N   0  0  0  0  0  0  0  0  0  0  0  0
   -1.1764    1.1916    7.5023 N   0  0  0  0  0  0  0  0  0  0  0  0
    3.1670    0.2533    8.0681 C   0  0  0  0  0  0  0  0  0  0  0  0
    4.2840   -0.1797    8.3348 O   0  0  0  0  0  0  0  0  0  0  0  0
    3.0480    1.4064    7.3396 N   0  0  0  0  0  0  0  0  0  0  0  0
   -4.0160   -0.2618    8.4395 H   0  0  0  0  0  0  0  0  0  0  0  0
   -3.6646    0.5266    6.8812 H   0  0  0  0  0  0  0  0  0  0  0  0
   -3.6550    1.4819    8.3918 H   0  0  0  0  0  0  0  0  0  0  0  0
    0.2228   -2.6905    9.9485 H   0  0  0  0  0  0  0  0  0  0  0  0
    2.1590    1.8139    7.0875 H   0  0  0  0  0  0  0  0  0  0  0  0
    3.9028    1.8591    7.0478 H   0  0  0  0  0  0  0  0  0  0  0  0
   -2.1419   -3.0088    2.1197 Ti  0  0  0  0  0  0  0  0  0  0  0  0
    0.2890   -1.6948    1.4324 Ti  0  0  0  0  0  0  0  0  0  0  0  0
    1.9031   -3.0677   -0.7293 Ti  0  0  0  0  0  0  0  0  0  0  0  0
   -2.5215   -0.2519    1.3037 Ti  0  0  0  0  0  0  0  0  0  0  0  0
    2.1420    0.4995    2.2044 Ti  0  0  0  0  0  0  0  0  0  0  0  0
   -0.6814    0.1896    3.6812 Ti  0  0  0  0  0  0  0  0  0  0  0  0
   -2.0368   -3.0777   -1.2005 Ti  0  0  0  0  0  0  0  0  0  0  0  0
   -0.6053   -0.7709   -2.0351 Ti  0  0  0  0  0  0  0  0  0  0  0  0
    1.9455   -1.5873   -3.4124 Ti  0  0  0  0  0  0  0  0  0  0  0  0
   -1.8782    1.7466   -1.2400 Ti  0  0  0  0  0  0  0  0  0  0  0  0
    2.4125    0.4542   -0.7742 Ti  0  0  0  0  0  0  0  0  0  0  0  0
    0.8177    1.8385   -2.9400 Ti  0  0  0  0  0  0  0  0  0  0  0  0
   -3.6784    1.2814    0.6007 C   0  0  0  0  0  0  0  0  0  0  0  0
    4.1282    0.4828    0.3873 C   0  0  0  0  0  0  0  0  0  0  0  0
    0.4555    2.2672    0.3497 C   0  0  0  0  0  0  0  0  0  0  0  0
   -3.6667    2.1188   -0.3139 C   0  0  0  0  0  0  0  0  0  0  0  0
    4.1160    0.6322    1.6214 C   0  0  0  0  0  0  0  0  0  0  0  0
   -0.6352    2.7410   -0.1189 C   0  0  0  0  0  0  0  0  0  0  0  0
    1.6301    1.7810    0.7342 C   0  0  0  0  0  0  0  0  0  0  0  0
   -3.0935   -1.9569    1.0379 O   0  0  0  0  0  0  0  0  0  0  0  0
   -0.4872   -2.6058    2.7012 O   0  0  0  0  0  0  0  0  0  0  0  0
    0.3141   -2.8889    0.1450 O   0  0  0  0  0  0  0  0  0  0  0  0
   -0.8008   -0.4359    0.9712 O   0  0  0  0  0  0  0  0  0  0  0  0
    1.9029   -1.1583    1.4694 O   0  0  0  0  0  0  0  0  0  0  0  0
   -2.3227   -0.1139    3.0248 O   0  0  0  0  0  0  0  0  0  0  0  0
    1.0138    0.4416    3.5688 O   0  0  0  0  0  0  0  0  0  0  0  0
   -1.7720   -4.5879   -1.6528 O   0  0  0  0  0  0  0  0  0  0  0  0
    0.1906   -1.1892   -3.5340 O   0  0  0  0  0  0  0  0  0  0  0  0
    2.8314   -2.1702   -1.9180 O   0  0  0  0  0  0  0  0  0  0  0  0
   -2.0546   -0.2244   -1.3375 O   0  0  0  0  0  0  0  0  0  0  0  0
    0.7685   -0.3906   -1.0637 O   0  0  0  0  0  0  0  0  0  0  0  0
   -0.9000    1.6493   -2.8186 O   0  0  0  0  0  0  0  0  0  0  0  0
    2.4153    1.3575   -2.2641 O   0  0  0  0  0  0  0  0  0  0  0  0
  1  2  1  0  0  0  0
  2  3  1  0  0  0  0
  3  4  2  0  0  0  0
  3  5  1  0  0  0  0
  5  6  1  0  0  0  0
  6  7  2  0  0  0  0
  7  8  4  0  0  0  0
  5  9  1  0  0  0  0
  8  9  4  0  0  0  0
  9 10  4  0  0  0  0
  2 11  1  0  0  0  0
 10 11  2  0  0  0  0
  8 12  1  0  0  0  0
 12 13  2  0  0  0  0
 12 14  4  0  0  0  0
  1 15  1  0  0  0  0
  1 16  1  0  0  0  0
  1 17  1  0  0  0  0
  6 18  1  0  0  0  0
 14 19  1  0  0  0  0
 14 20  1  0  0  0  0
 21 27  1  0  0  0  0
 27 28  1  0  0  0  0
 23 29  1  0  0  0  0
 24 33  1  0  0  0  0
 31 34  1  0  0  0  0
 30 36  1  0  0  0  0
 33 36  3  0  0  0  0
 25 37  1  0  0  0  0
 34 37  3  0  0  0  0
 30 38  1  0  0  0  0
 35 38  2  0  0  0  0
 25 39  1  0  0  0  0
 31 39  1  0  0  0  0
 35 39  2  0  0  0  0
 21 40  1  0  0  0  0
 24 40  1  0  0  0  0
 21 41  1  0  0  0  0
 22 41  1  0  0  0  0
 22 42  1  0  0  0  0
 23 42  1  0  0  0  0
 22 43  1  0  0  0  0
 24 43  1  0  0  0  0
 22 44  1  0  0  0  0
 25 44  1  0  0  0  0
 24 45  1  0  0  0  0
 26 45  1  0  0  0  0
 25 46  1  0  0  0  0
 26 46  1  0  0  0  0
 27 47  2  0  0  0  0
 28 48  1  0  0  0  0
 29 48  1  0  0  0  0
 23 49  1  0  0  0  0
 29 49  1  0  0  0  0
 28 50  1  0  0  0  0
 30 50  1  0  0  0  0
 28 51  1  0  0  0  0
 31 51  1  0  0  0  0
 30 52  1  0  0  0  0
 32 52  1  0  0  0  0
 31 53  1  0  0  0  0
 32 53  1  0  0  0  0
M  END
