 xtb: 6.7.1pre (5071a88)
          08312620293D

 52 64  0     0  0            999 V2000
   -2.6600    1.0832    5.3690 C   0  0  0  0  0  0  0  0  0  0  0  0
   -1.5467    0.1559    5.3858 N   0  0  0  0  0  0  0  0  0  0  0  0
   -0.2514    0.6516    5.3451 C   0  0  0  0  0  0  0  0  0  0  0  0
    0.0102    1.8405    5.1648 O   0  0  0  0  0  0  0  0  0  0  0  0
    0.6991   -0.3184    5.4939 N   0  0  0  0  0  0  0  0  0  0  0  0
    0.4013   -1.5984    5.2163 C   0  0  0  0  0  0  0  0  0  0  0  0
   -0.7807   -2.0815    5.1151 N   0  0  0  0  0  0  0  0  0  0  0  0
   -1.8229   -1.2055    5.2778 C   0  0  0  0  0  0  0  0  0  0  0  0
   -2.9807   -1.6152    5.2974 O   0  0  0  0  0  0  0  0  0  0  0  0
    1.5612   -2.3032    5.0110 N   0  0  0  0  0  0  0  0  0  0  0  0
    2.5354   -1.4871    5.0666 N   0  0  0  0  0  0  0  0  0  0  0  0
    2.0454   -0.2028    5.2439 N   0  0  0  0  0  0  0  0  0  0  0  0
    2.7691    0.6261    6.1878 C   0  0  0  0  0  0  0  0  0  0  0  0
   -3.0428    1.1456    4.3454 H   0  0  0  0  0  0  0  0  0  0  0  0
   -3.4610    0.7219    6.0214 H   0  0  0  0  0  0  0  0  0  0  0  0
   -2.3564    2.0802    5.7001 H   0  0  0  0  0  0  0  0  0  0  0  0
    2.6613    0.2214    7.1990 H   0  0  0  0  0  0  0  0  0  0  0  0
    2.3928    1.6514    6.1516 H   0  0  0  0  0  0  0  0  0  0  0  0
    3.8268    0.6344    5.9080 H   0  0  0  0  0  0  0  0  0  0  0  0
   -3.0000   -2.6000    1.2500 Ti  0  0  0  0  0  0  0  0  0  0  0  0
    0.0000   -2.6000    1.2500 Ti  0  0  0  0  0  0  0  0  0  0  0  0
    3.0000   -2.6000    1.2500 Ti  0  0  0  0  0  0  0  0  0  0  0  0
   -1.5000    0.0000    1.2500 Ti  0  0  0  0  0  0  0  0  0  0  0  0
    1.5000    0.0000    1.2500 Ti  0  0  0  0  0  0  0  0  0  0  0  0
    0.0000    2.6000    1.2500 Ti  0  0  0  0  0  0  0  0  0  0  0  0
   -3.0000   -2.6000   -1.2500 Ti  0  0  0  0  0  0  0  0  0  0  0  0
    0.0000   -2.6000   -1.2500 Ti  0  0  0  0  0  0  0  0  0  0  0  0
    3.0000   -2.6000   -1.2500 Ti  0  0  0  0  0  0  0  0  0  0  0  0
   -1.5000    0.0000   -1.2500 Ti  0  0  0  0  0  0  0  0  0  0  0  0
    1.5000    0.0000   -1.2500 Ti  0  0  0  0  0  0  0  0  0  0  0  0
    0.0000    2.6000   -1.2500 Ti  0  0  0  0  0  0  0  0  0  0  0  0
   -1.5000   -1.3000    0.0000 C   0  0  0  0  0  0  0  0  0  0  0  0
    1.5000   -1.3000    0.0000 C   0  0  0  0  0  0  0  0  0  0  0  0
    0.0000    1.3000    0.0000 C   0  0  0  0  0  0  0  0  0  0  0  0
   -3.0000    0.0000    0.0000 C   0  0  0  0  0  0  0  0  0  0  0  0
    3.0000    0.0000    0.0000 C   0  0  0  0  0  0  0  0  0  0  0  0
   -1.5000    2.6000    0.0000 C   0  0  0  0  0  0  0  0  0  0  0  0
    1.5000    2.6000    0.0000 C   0  0  0  0  0  0  0  0  0  0  0  0
   -3.0000   -2.6000    2.4500 O   0  0  0  0  0  0  0  0  0  0  0  0
    0.0000   -2.6000    2.4500 O   0  0  0  0  0  0  0  0  0  0  0  0
    3.0000   -2.6000    2.4500 O   0  0  0  0  0  0  0  0  0  0  0  0
   -1.5000    0.0000    2.4500 O   0  0  0  0  0  0  0  0  0  0  0  0
    1.5000    0.0000    2.4500 O   0  0  0  0  0  0  0  0  0  0  0  0
   -1.5000    2.6000    2.4500 O   0  0  0  0  0  0  0  0  0  0  0  0
    1.5000    2.6000    2.4500 O   0  0  0  0  0  0  0  0  0  0  0  0
   -3.0000   -2.6000   -2.4500 O   0  0  0  0  0  0  0  0  0  0  0  0
    0.0000   -2.6000   -2.4500 O   0  0  0  0  0  0  0  0  0  0  0  0
    3.0000   -2.6000   -2.4500 O   0  0  0  0  0  0  0  0  0  0  0  0
   -1.5000    0.0000   -2.4500 O   0  0  0  0  0  0  0  0  0  0  0  0
    1.5000    0.0000   -2.4500 O   0  0  0  0  0  0  0  0  0  0  0  0
   -1.5000    2.6000   -2.4500 O   0  0  0  0  0  0  0  0  0  0  0  0
    1.5000    2.6000   -2.4500 O   0  0  0  0  0  0  0  0  0  0  0  0
  1  2  1  0  0  0  0
  2  3  1  0  0  0  0
  3  4  2  0  0  0  0
  3  5  1  0  0  0  0
  5  6  1  0  0  0  0
  6  7  4  0  0  0  0
  2  8  1  0  0  0  0
  7  8  1  0  0  0  0
  8  9  2  0  0  0  0
  6 10  1  0  0  0  0
 10 11  2  0  0  0  0
  5 12  1  0  0  0  0
 11 12  4  0  0  0  0
 12 13  1  0  0  0  0
  1 14  1  0  0  0  0
  1 15  1  0  0  0  0
  1 16  1  0  0  0  0
 13 17  1  0  0  0  0
 13 18  1  0  0  0  0
 13 19  1  0  0  0  0
 20 21  1  0  0  0  0
 21 22  1  0  0  0  0
 20 26  1  0  0  0  0
 21 27  1  0  0  0  0
 26 27  1  0  0  0  0
 22 28  1  0  0  0  0
 27 28  1  0  0  0  0
 23 32  1  0  0  0  0
 26 32  1  0  0  0  0
 29 32  1  0  0  0  0
 24 33  1  0  0  0  0
 30 33  1  0  0  0  0
 25 34  1  0  0  0  0
 31 34  1  0  0  0  0
 23 35  1  0  0  0  0
 29 35  1  0  0  0  0
 32 35  1  0  0  0  0
 24 36  1  0  0  0  0
 30 36  1  0  0  0  0
 33 36  1  0  0  0  0
 25 37  1  0  0  0  0
 31 37  1  0  0  0  0
 34 37  1  0  0  0  0
 25 38  1  0  0  0  0
 31 38  1  0  0  0  0
 34 38  1  0  0  0  0
 20 39  2  0  0  0  0
 21 40  2  0  0  0  0
 22 41  2  0  0  0  0
 23 42  2  0  0  0  0
 24 43  2  0  0  0  0
 25 44  1  0  0  0  0
 37 44  1  0  0  0  0
 25 45  1  0  0  0  0
 38 45  1  0  0  0  0
 26 46  2  0  0  0  0
 27 47  2  0  0  0  0
 28 48  2  0  0  0  0
 29 49  2  0  0  0  0
 30 50  2  0  0  0  0
 31 51  1  0  0  0  0
 37 51  1  0  0  0  0
 31 52  1  0  0  0  0
 38 52  1  0  0  0  0
M  END
