 xtb: 6.7.1pre (5071a88)
          09012617043D

 33 40  0     0  0            999 V2000
   -1.6756   -2.5461    3.7801 Ti  0  0  0  0  0  0  0  0  0  0  0  0
    0.6708   -1.6201    2.2095 Ti  0  0  0  0  0  0  0  0  0  0  0  0
    1.5314   -3.4144    0.0256 Ti  0  0  0  0  0  0  0  0  0  0  0  0
   -2.0673    0.0137    2.4381 Ti  0  0  0  0  0  0  0  0  0  0  0  0
    2.6109    0.5775    2.1150 Ti  0  0  0  0  0  0  0  0  0  0  0  0
    0.2106    0.1648    4.5637 Ti  0  0  0  0  0  0  0  0  0  0  0  0
   -2.1828   -3.3039    0.5171 Ti  0  0  0  0  0  0  0  0  0  0  0  0
   -0.8309   -1.0517   -1.0846 Ti  0  0  0  0  0  0  0  0  0  0  0  0
    1.1108   -2.1792   -2.8388 Ti  0  0  0  0  0  0  0  0  0  0  0  0
   -2.0383    1.5022   -0.4046 Ti  0  0  0  0  0  0  0  0  0  0  0  0
    2.2604    0.2319   -0.8250 Ti  0  0  0  0  0  0  0  0  0  0  0  0
    0.1915    1.4300   -2.6516 Ti  0  0  0  0  0  0  0  0  0  0  0  0
   -3.3600    1.4142    1.7152 C   0  0  0  0  0  0  0  0  0  0  0  0
    4.1884    0.2610   -0.0811 C   0  0  0  0  0  0  0  0  0  0  0  0
    0.6107    2.1675    0.5772 C   0  0  0  0  0  0  0  0  0  0  0  0
   -3.6248    2.1175    0.7248 C   0  0  0  0  0  0  0  0  0  0  0  0
    4.4166    0.5425    1.1088 C   0  0  0  0  0  0  0  0  0  0  0  0
   -0.5819    2.5613    0.3800 C   0  0  0  0  0  0  0  0  0  0  0  0
    1.8810    1.7661    0.6744 C   0  0  0  0  0  0  0  0  0  0  0  0
   -2.7926   -1.6578    2.7514 O   0  0  0  0  0  0  0  0  0  0  0  0
    0.1824   -2.0283    3.9141 O   0  0  0  0  0  0  0  0  0  0  0  0
    0.4204   -3.1466    1.4499 O   0  0  0  0  0  0  0  0  0  0  0  0
   -0.5534   -0.4775    1.7818 O   0  0  0  0  0  0  0  0  0  0  0  0
    2.2401   -1.2164    1.7245 O   0  0  0  0  0  0  0  0  0  0  0  0
   -1.4659    0.3851    4.0415 O   0  0  0  0  0  0  0  0  0  0  0  0
    1.5046    0.5258    3.4867 O   0  0  0  0  0  0  0  0  0  0  0  0
   -1.0635   -2.7577   -0.7429 O   0  0  0  0  0  0  0  0  0  0  0  0
   -0.4406   -1.2744   -2.8056 O   0  0  0  0  0  0  0  0  0  0  0  0
    2.1144   -2.8561   -1.5221 O   0  0  0  0  0  0  0  0  0  0  0  0
   -2.2045   -0.3919   -0.2302 O   0  0  0  0  0  0  0  0  0  0  0  0
    0.7038   -0.5817   -0.4780 O   0  0  0  0  0  0  0  0  0  0  0  0
   -1.4450    1.4030   -2.0695 O   0  0  0  0  0  0  0  0  0  0  0  0
    1.8924    0.9317   -2.3645 O   0  0  0  0  0  0  0  0  0  0  0  0
  1  7  1  0  0  0  0
  4 13  1  0  0  0  0
 11 14  1  0  0  0  0
 10 16  1  0  0  0  0
 13 16  3  0  0  0  0
  5 17  1  0  0  0  0
 14 17  3  0  0  0  0
 10 18  1  0  0  0  0
 15 18  2  0  0  0  0
  5 19  1  0  0  0  0
 11 19  1  0  0  0  0
 15 19  2  0  0  0  0
  1 20  1  0  0  0  0
  4 20  1  0  0  0  0
  1 21  1  0  0  0  0
  2 21  1  0  0  0  0
  2 22  1  0  0  0  0
  3 22  1  0  0  0  0
  2 23  1  0  0  0  0
  4 23  1  0  0  0  0
  2 24  1  0  0  0  0
  5 24  1  0  0  0  0
  4 25  1  0  0  0  0
  6 25  1  0  0  0  0
  5 26  1  0  0  0  0
  6 26  1  0  0  0  0
  7 27  1  0  0  0  0
  8 27  1  0  0  0  0
  8 28  1  0  0  0  0
  9 28  1  0  0  0  0
  3 29  1  0  0  0  0
  9 29  1  0  0  0  0
  8 30  1  0  0  0  0
 10 30  1  0  0  0  0
  8 31  1  0  0  0  0
 11 31  1  0  0  0  0
 10 32  1  0  0  0  0
 12 32  1  0  0  0  0
 11 33  1  0  0  0  0
 12 33  1  0  0  0  0
M  END
