 xtb: 6.7.1pre (5071a88)
          08312620293D

 54 63  0     0  0            999 V2000
    1.4127   -0.3559    8.3427 O   0  0  0  0  0  0  0  0  0  0  0  0
    0.5196   -0.3080    7.4911 N   0  0  0  0  0  0  0  0  0  0  0  0
    0.9579    0.3230    6.2039 N   0  0  0  0  0  0  0  0  0  0  0  0
    2.3505    0.7317    6.0393 C   0  0  0  0  0  0  0  0  0  0  0  0
    3.3134   -0.4375    5.8421 C   0  0  0  0  0  0  0  0  0  0  0  0
    3.0180   -1.3131    4.3199 Cl  0  0  0  0  0  0  0  0  0  0  0  0
    0.0554    0.4728    5.1540 C   0  0  0  0  0  0  0  0  0  0  0  0
    0.3601    0.9760    4.0728 O   0  0  0  0  0  0  0  0  0  0  0  0
   -1.2219    0.0057    5.3892 N   0  0  0  0  0  0  0  0  0  0  0  0
   -2.2659    0.2024    4.3965 C   0  0  0  0  0  0  0  0  0  0  0  0
   -3.5052   -0.6398    4.6732 C   0  0  0  0  0  0  0  0  0  0  0  0
   -4.2443   -0.1966    6.2358 Cl  0  0  0  0  0  0  0  0  0  0  0  0
    2.6420    1.3045    6.9279 H   0  0  0  0  0  0  0  0  0  0  0  0
    2.4363    1.4232    5.1930 H   0  0  0  0  0  0  0  0  0  0  0  0
    3.2449   -1.1662    6.6542 H   0  0  0  0  0  0  0  0  0  0  0  0
    4.3427   -0.0683    5.8045 H   0  0  0  0  0  0  0  0  0  0  0  0
   -1.5278    0.0224    6.3544 H   0  0  0  0  0  0  0  0  0  0  0  0
   -1.8619   -0.0564    3.4112 H   0  0  0  0  0  0  0  0  0  0  0  0
   -2.5124    1.2704    4.3810 H   0  0  0  0  0  0  0  0  0  0  0  0
   -4.2577   -0.4860    3.8946 H   0  0  0  0  0  0  0  0  0  0  0  0
   -3.2564   -1.7043    4.7187 H   0  0  0  0  0  0  0  0  0  0  0  0
   -3.0000   -2.6000    1.2500 Ti  0  0  0  0  0  0  0  0  0  0  0  0
    0.0000   -2.6000    1.2500 Ti  0  0  0  0  0  0  0  0  0  0  0  0
    3.0000   -2.6000    1.2500 Ti  0  0  0  0  0  0  0  0  0  0  0  0
   -1.5000    0.0000    1.2500 Ti  0  0  0  0  0  0  0  0  0  0  0  0
    1.5000    0.0000    1.2500 Ti  0  0  0  0  0  0  0  0  0  0  0  0
    0.0000    2.6000    1.2500 Ti  0  0  0  0  0  0  0  0  0  0  0  0
   -3.0000   -2.6000   -1.2500 Ti  0  0  0  0  0  0  0  0  0  0  0  0
    0.0000   -2.6000   -1.2500 Ti  0  0  0  0  0  0  0  0  0  0  0  0
    3.0000   -2.6000   -1.2500 Ti  0  0  0  0  0  0  0  0  0  0  0  0
   -1.5000    0.0000   -1.2500 Ti  0  0  0  0  0  0  0  0  0  0  0  0
    1.5000    0.0000   -1.2500 Ti  0  0  0  0  0  0  0  0  0  0  0  0
    0.0000    2.6000   -1.2500 Ti  0  0  0  0  0  0  0  0  0  0  0  0
   -1.5000   -1.3000    0.0000 C   0  0  0  0  0  0  0  0  0  0  0  0
    1.5000   -1.3000    0.0000 C   0  0  0  0  0  0  0  0  0  0  0  0
    0.0000    1.3000    0.0000 C   0  0  0  0  0  0  0  0  0  0  0  0
   -3.0000    0.0000    0.0000 C   0  0  0  0  0  0  0  0  0  0  0  0
    3.0000    0.0000    0.0000 C   0  0  0  0  0  0  0  0  0  0  0  0
   -1.5000    2.6000    0.0000 C   0  0  0  0  0  0  0  0  0  0  0  0
    1.5000    2.6000    0.0000 C   0  0  0  0  0  0  0  0  0  0  0  0
   -3.0000   -2.6000    2.4500 O   0  0  0  0  0  0  0  0  0  0  0  0
    0.0000   -2.6000    2.4500 O   0  0  0  0  0  0  0  0  0  0  0  0
    3.0000   -2.6000    2.4500 O   0  0  0  0  0  0  0  0  0  0  0  0
   -1.5000    0.0000    2.4500 O   0  0  0  0  0  0  0  0  0  0  0  0
    1.5000    0.0000    2.4500 O   0  0  0  0  0  0  0  0  0  0  0  0
   -1.5000    2.6000    2.4500 O   0  0  0  0  0  0  0  0  0  0  0  0
    1.5000    2.6000    2.4500 O   0  0  0  0  0  0  0  0  0  0  0  0
   -3.0000   -2.6000   -2.4500 O   0  0  0  0  0  0  0  0  0  0  0  0
    0.0000   -2.6000   -2.4500 O   0  0  0  0  0  0  0  0  0  0  0  0
    3.0000   -2.6000   -2.4500 O   0  0  0  0  0  0  0  0  0  0  0  0
   -1.5000    0.0000   -2.4500 O   0  0  0  0  0  0  0  0  0  0  0  0
    1.5000    0.0000   -2.4500 O   0  0  0  0  0  0  0  0  0  0  0  0
   -1.5000    2.6000   -2.4500 O   0  0  0  0  0  0  0  0  0  0  0  0
    1.5000    2.6000   -2.4500 O   0  0  0  0  0  0  0  0  0  0  0  0
  1  2  2  0  0  0  0
  2  3  1  0  0  0  0
  3  4  1  0  0  0  0
  4  5  1  0  0  0  0
  5  6  1  0  0  0  0
  3  7  1  0  0  0  0
  7  8  2  0  0  0  0
  7  9  1  0  0  0  0
  9 10  1  0  0  0  0
 10 11  1  0  0  0  0
 11 12  1  0  0  0  0
  4 13  1  0  0  0  0
  4 14  1  0  0  0  0
  5 15  1  0  0  0  0
  5 16  1  0  0  0  0
  9 17  1  0  0  0  0
 10 18  1  0  0  0  0
 10 19  1  0  0  0  0
 11 20  1  0  0  0  0
 11 21  1  0  0  0  0
 22 23  1  0  0  0  0
 22 28  1  0  0  0  0
 23 29  1  0  0  0  0
 28 29  1  0  0  0  0
 24 30  1  0  0  0  0
 29 30  1  0  0  0  0
 25 34  1  0  0  0  0
 31 34  1  0  0  0  0
 26 35  1  0  0  0  0
 32 35  1  0  0  0  0
 27 36  1  0  0  0  0
 33 36  1  0  0  0  0
 25 37  1  0  0  0  0
 31 37  1  0  0  0  0
 34 37  1  0  0  0  0
 26 38  1  0  0  0  0
 32 38  1  0  0  0  0
 35 38  1  0  0  0  0
 27 39  1  0  0  0  0
 33 39  1  0  0  0  0
 36 39  1  0  0  0  0
 27 40  1  0  0  0  0
 33 40  1  0  0  0  0
 36 40  1  0  0  0  0
 22 41  2  0  0  0  0
 23 42  2  0  0  0  0
 24 43  2  0  0  0  0
 18 44  1  0  0  0  0
 25 44  1  0  0  0  0
 26 45  2  0  0  0  0
 27 46  1  0  0  0  0
 39 46  1  0  0  0  0
 27 47  1  0  0  0  0
 40 47  1  0  0  0  0
 28 48  2  0  0  0  0
 29 49  2  0  0  0  0
 30 50  2  0  0  0  0
 31 51  2  0  0  0  0
 32 52  2  0  0  0  0
 33 53  1  0  0  0  0
 39 53  1  0  0  0  0
 33 54  1  0  0  0  0
 40 54  1  0  0  0  0
M  END
