 xtb: 6.7.1pre (5071a88)
          08312621183D

 54 61  0     0  0            999 V2000
    1.4127   -0.3559   12.1127 O   0  0  0  0  0  0  0  0  0  0  0  0
    0.5196   -0.3080   11.2611 N   0  0  0  0  0  0  0  0  0  0  0  0
    0.9579    0.3230    9.9740 N   0  0  0  0  0  0  0  0  0  0  0  0
    2.3505    0.7317    9.8093 C   0  0  0  0  0  0  0  0  0  0  0  0
    3.3134   -0.4375    9.6121 C   0  0  0  0  0  0  0  0  0  0  0  0
    3.0180   -1.3131    8.0899 Cl  0  0  0  0  0  0  0  0  0  0  0  0
    0.0554    0.4728    8.9240 C   0  0  0  0  0  0  0  0  0  0  0  0
    0.3601    0.9760    7.8428 O   0  0  0  0  0  0  0  0  0  0  0  0
   -1.2219    0.0057    9.1592 N   0  0  0  0  0  0  0  0  0  0  0  0
   -2.2659    0.2024    8.1666 C   0  0  0  0  0  0  0  0  0  0  0  0
   -3.5052   -0.6398    8.4432 C   0  0  0  0  0  0  0  0  0  0  0  0
   -4.2443   -0.1966   10.0059 Cl  0  0  0  0  0  0  0  0  0  0  0  0
    2.6420    1.3045   10.6979 H   0  0  0  0  0  0  0  0  0  0  0  0
    2.4363    1.4232    8.9630 H   0  0  0  0  0  0  0  0  0  0  0  0
    3.2449   -1.1662   10.4243 H   0  0  0  0  0  0  0  0  0  0  0  0
    4.3427   -0.0683    9.5745 H   0  0  0  0  0  0  0  0  0  0  0  0
   -1.5278    0.0224   10.1244 H   0  0  0  0  0  0  0  0  0  0  0  0
   -1.8619   -0.0564    7.1812 H   0  0  0  0  0  0  0  0  0  0  0  0
   -2.5124    1.2704    8.1511 H   0  0  0  0  0  0  0  0  0  0  0  0
   -4.2577   -0.4860    7.6647 H   0  0  0  0  0  0  0  0  0  0  0  0
   -3.2564   -1.7043    8.4888 H   0  0  0  0  0  0  0  0  0  0  0  0
   -2.1419   -3.0088    2.1197 Ti  0  0  0  0  0  0  0  0  0  0  0  0
    0.2890   -1.6948    1.4324 Ti  0  0  0  0  0  0  0  0  0  0  0  0
    1.9031   -3.0677   -0.7293 Ti  0  0  0  0  0  0  0  0  0  0  0  0
   -2.5215   -0.2519    1.3037 Ti  0  0  0  0  0  0  0  0  0  0  0  0
    2.1420    0.4995    2.2044 Ti  0  0  0  0  0  0  0  0  0  0  0  0
   -0.6814    0.1896    3.6812 Ti  0  0  0  0  0  0  0  0  0  0  0  0
   -2.0368   -3.0777   -1.2005 Ti  0  0  0  0  0  0  0  0  0  0  0  0
   -0.6053   -0.7709   -2.0351 Ti  0  0  0  0  0  0  0  0  0  0  0  0
    1.9455   -1.5873   -3.4124 Ti  0  0  0  0  0  0  0  0  0  0  0  0
   -1.8782    1.7466   -1.2400 Ti  0  0  0  0  0  0  0  0  0  0  0  0
    2.4125    0.4542   -0.7742 Ti  0  0  0  0  0  0  0  0  0  0  0  0
    0.8177    1.8385   -2.9400 Ti  0  0  0  0  0  0  0  0  0  0  0  0
   -3.6784    1.2814    0.6007 C   0  0  0  0  0  0  0  0  0  0  0  0
    4.1282    0.4828    0.3873 C   0  0  0  0  0  0  0  0  0  0  0  0
    0.4555    2.2672    0.3497 C   0  0  0  0  0  0  0  0  0  0  0  0
   -3.6667    2.1188   -0.3139 C   0  0  0  0  0  0  0  0  0  0  0  0
    4.1160    0.6322    1.6214 C   0  0  0  0  0  0  0  0  0  0  0  0
   -0.6352    2.7410   -0.1189 C   0  0  0  0  0  0  0  0  0  0  0  0
    1.6301    1.7810    0.7342 C   0  0  0  0  0  0  0  0  0  0  0  0
   -3.0935   -1.9569    1.0379 O   0  0  0  0  0  0  0  0  0  0  0  0
   -0.4872   -2.6058    2.7012 O   0  0  0  0  0  0  0  0  0  0  0  0
    0.3141   -2.8889    0.1450 O   0  0  0  0  0  0  0  0  0  0  0  0
   -0.8008   -0.4359    0.9712 O   0  0  0  0  0  0  0  0  0  0  0  0
    1.9029   -1.1583    1.4694 O   0  0  0  0  0  0  0  0  0  0  0  0
   -2.3227   -0.1139    3.0248 O   0  0  0  0  0  0  0  0  0  0  0  0
    1.0138    0.4416    3.5688 O   0  0  0  0  0  0  0  0  0  0  0  0
   -1.7720   -4.5879   -1.6528 O   0  0  0  0  0  0  0  0  0  0  0  0
    0.1906   -1.1892   -3.5340 O   0  0  0  0  0  0  0  0  0  0  0  0
    2.8314   -2.1702   -1.9180 O   0  0  0  0  0  0  0  0  0  0  0  0
   -2.0546   -0.2244   -1.3375 O   0  0  0  0  0  0  0  0  0  0  0  0
    0.7685   -0.3906   -1.0637 O   0  0  0  0  0  0  0  0  0  0  0  0
   -0.9000    1.6493   -2.8186 O   0  0  0  0  0  0  0  0  0  0  0  0
    2.4153    1.3575   -2.2641 O   0  0  0  0  0  0  0  0  0  0  0  0
  1  2  2  0  0  0  0
  2  3  1  0  0  0  0
  3  4  1  0  0  0  0
  4  5  1  0  0  0  0
  5  6  1  0  0  0  0
  3  7  1  0  0  0  0
  7  8  2  0  0  0  0
  7  9  1  0  0  0  0
  9 10  1  0  0  0  0
 10 11  1  0  0  0  0
 11 12  1  0  0  0  0
  4 13  1  0  0  0  0
  4 14  1  0  0  0  0
  5 15  1  0  0  0  0
  5 16  1  0  0  0  0
  9 17  1  0  0  0  0
 10 18  1  0  0  0  0
 10 19  1  0  0  0  0
 11 20  1  0  0  0  0
 11 21  1  0  0  0  0
 22 28  1  0  0  0  0
 28 29  1  0  0  0  0
 24 30  1  0  0  0  0
 25 34  1  0  0  0  0
 32 35  1  0  0  0  0
 31 37  1  0  0  0  0
 34 37  3  0  0  0  0
 26 38  1  0  0  0  0
 35 38  3  0  0  0  0
 31 39  1  0  0  0  0
 36 39  2  0  0  0  0
 26 40  1  0  0  0  0
 32 40  1  0  0  0  0
 36 40  2  0  0  0  0
 22 41  1  0  0  0  0
 25 41  1  0  0  0  0
 22 42  1  0  0  0  0
 23 42  1  0  0  0  0
 23 43  1  0  0  0  0
 24 43  1  0  0  0  0
 23 44  1  0  0  0  0
 25 44  1  0  0  0  0
 23 45  1  0  0  0  0
 26 45  1  0  0  0  0
 25 46  1  0  0  0  0
 27 46  1  0  0  0  0
 26 47  1  0  0  0  0
 27 47  1  0  0  0  0
 28 48  2  0  0  0  0
 29 49  1  0  0  0  0
 30 49  1  0  0  0  0
 24 50  1  0  0  0  0
 30 50  1  0  0  0  0
 29 51  1  0  0  0  0
 31 51  1  0  0  0  0
 29 52  1  0  0  0  0
 32 52  1  0  0  0  0
 31 53  1  0  0  0  0
 33 53  1  0  0  0  0
 32 54  1  0  0  0  0
 33 54  1  0  0  0  0
M  END
