 xtb: 6.7.1pre (5071a88)
          08312621193D

 93105  0     0  0            999 V2000
   -6.7033    2.4590    9.7221 C   0  0  0  0  0  0  0  0  0  0  0  0
   -6.0677    1.1574   10.1457 C   0  0  0  0  0  0  0  0  0  0  0  0
   -6.7857    0.1898   10.3897 O   0  0  0  0  0  0  0  0  0  0  0  0
   -4.6125    1.1142   10.2493 C   0  0  0  0  0  0  0  0  0  0  0  0
   -3.7537    2.1040   10.7452 C   0  0  0  0  0  0  0  0  0  0  0  0
   -4.1253    3.4311   11.3156 C   0  0  0  0  0  0  0  0  0  0  0  0
   -2.4230    1.6063   10.6468 C   0  0  0  0  0  0  0  0  0  0  0  0
   -1.1477    2.0669   10.9510 C   0  0  0  0  0  0  0  0  0  0  0  0
   -0.0746    1.2787   10.7194 N   0  0  0  0  0  0  0  0  0  0  0  0
   -0.2527    0.0486   10.1999 C   0  0  0  0  0  0  0  0  0  0  0  0
    0.8267   -0.7821    9.9523 N   0  0  0  0  0  0  0  0  0  0  0  0
    2.1946   -0.6866   10.1141 C   0  0  0  0  0  0  0  0  0  0  0  0
    2.8515    0.4205   10.6289 C   0  0  0  0  0  0  0  0  0  0  0  0
    4.2485    0.4175   10.7491 C   0  0  0  0  0  0  0  0  0  0  0  0
    5.0007   -0.6862   10.3557 C   0  0  0  0  0  0  0  0  0  0  0  0
    6.3928   -0.7624   10.4423 N   0  0  0  0  0  0  0  0  0  0  0  0
    7.1508    0.1800   11.2876 C   0  0  0  0  0  0  0  0  0  0  0  0
    7.9119    1.2115   10.4284 C   0  0  0  0  0  0  0  0  0  0  0  0
    8.8767    0.6312    9.4725 N   0  0  0  0  0  0  0  0  0  0  0  0
    8.5653   -0.7828    9.1840 C   0  0  0  0  0  0  0  0  0  0  0  0
    7.0555   -1.1147    9.1594 C   0  0  0  0  0  0  0  0  0  0  0  0
    4.2417   -1.7486    9.8574 C   0  0  0  0  0  0  0  0  0  0  0  0
    2.8888   -1.7750    9.7253 N   0  0  0  0  0  0  0  0  0  0  0  0
   -1.4465   -0.4758    9.8794 N   0  0  0  0  0  0  0  0  0  0  0  0
   -2.4908    0.3346   10.1195 C   0  0  0  0  0  0  0  0  0  0  0  0
   -3.8159    0.0332    9.8798 N   0  0  0  0  0  0  0  0  0  0  0  0
   -4.2175   -1.2384    9.2971 C   0  0  0  0  0  0  0  0  0  0  0  0
   -4.8099   -2.2384   10.2941 C   0  0  0  0  0  0  0  0  0  0  0  0
   -5.6027   -3.1882    9.4091 C   0  0  0  0  0  0  0  0  0  0  0  0
   -6.2282   -2.2744    8.3655 C   0  0  0  0  0  0  0  0  0  0  0  0
   -5.1791   -1.1960    8.0952 C   0  0  0  0  0  0  0  0  0  0  0  0
   -6.0684    2.9877    9.0060 H   0  0  0  0  0  0  0  0  0  0  0  0
   -6.8952    3.0841   10.5967 H   0  0  0  0  0  0  0  0  0  0  0  0
   -7.6549    2.2462    9.2249 H   0  0  0  0  0  0  0  0  0  0  0  0
   -3.2942    3.8749   11.8729 H   0  0  0  0  0  0  0  0  0  0  0  0
   -4.4020    4.1269   10.5178 H   0  0  0  0  0  0  0  0  0  0  0  0
   -4.9647    3.3336   12.0112 H   0  0  0  0  0  0  0  0  0  0  0  0
   -0.9463    3.0434   11.3740 H   0  0  0  0  0  0  0  0  0  0  0  0
    0.5432   -1.6682    9.5667 H   0  0  0  0  0  0  0  0  0  0  0  0
    2.3068    1.3038   10.9399 H   0  0  0  0  0  0  0  0  0  0  0  0
    4.7161    1.3183   11.1303 H   0  0  0  0  0  0  0  0  0  0  0  0
    6.5303    0.6833   12.0360 H   0  0  0  0  0  0  0  0  0  0  0  0
    7.8774   -0.4026   11.8694 H   0  0  0  0  0  0  0  0  0  0  0  0
    7.1893    1.8051    9.8557 H   0  0  0  0  0  0  0  0  0  0  0  0
    8.4440    1.9108   11.0831 H   0  0  0  0  0  0  0  0  0  0  0  0
    9.8182    0.6824    9.8597 H   0  0  0  0  0  0  0  0  0  0  0  0
    9.0538   -1.4109    9.9400 H   0  0  0  0  0  0  0  0  0  0  0  0
    9.0113   -1.0455    8.2187 H   0  0  0  0  0  0  0  0  0  0  0  0
    6.5920   -0.5654    8.3286 H   0  0  0  0  0  0  0  0  0  0  0  0
    6.9397   -2.1873    8.9658 H   0  0  0  0  0  0  0  0  0  0  0  0
    4.7242   -2.6721    9.5495 H   0  0  0  0  0  0  0  0  0  0  0  0
   -3.3001   -1.6996    8.9049 H   0  0  0  0  0  0  0  0  0  0  0  0
   -4.0300   -2.7637   10.8556 H   0  0  0  0  0  0  0  0  0  0  0  0
   -5.4656   -1.7595   11.0270 H   0  0  0  0  0  0  0  0  0  0  0  0
   -4.9282   -3.9049    8.9256 H   0  0  0  0  0  0  0  0  0  0  0  0
   -6.3528   -3.7518    9.9711 H   0  0  0  0  0  0  0  0  0  0  0  0
   -6.5036   -2.8166    7.4558 H   0  0  0  0  0  0  0  0  0  0  0  0
   -7.1405   -1.8192    8.7661 H   0  0  0  0  0  0  0  0  0  0  0  0
   -5.6438   -0.2237    7.9133 H   0  0  0  0  0  0  0  0  0  0  0  0
   -4.6248   -1.4446    7.1812 H   0  0  0  0  0  0  0  0  0  0  0  0
   -2.1419   -3.0088    2.1197 Ti  0  0  0  0  0  0  0  0  0  0  0  0
    0.2890   -1.6948    1.4324 Ti  0  0  0  0  0  0  0  0  0  0  0  0
    1.9031   -3.0677   -0.7293 Ti  0  0  0  0  0  0  0  0  0  0  0  0
   -2.5215   -0.2519    1.3037 Ti  0  0  0  0  0  0  0  0  0  0  0  0
    2.1420    0.4995    2.2044 Ti  0  0  0  0  0  0  0  0  0  0  0  0
   -0.6814    0.1896    3.6812 Ti  0  0  0  0  0  0  0  0  0  0  0  0
   -2.0368   -3.0777   -1.2005 Ti  0  0  0  0  0  0  0  0  0  0  0  0
   -0.6053   -0.7709   -2.0351 Ti  0  0  0  0  0  0  0  0  0  0  0  0
    1.9455   -1.5873   -3.4124 Ti  0  0  0  0  0  0  0  0  0  0  0  0
   -1.8782    1.7466   -1.2400 Ti  0  0  0  0  0  0  0  0  0  0  0  0
    2.4125    0.4542   -0.7742 Ti  0  0  0  0  0  0  0  0  0  0  0  0
    0.8177    1.8385   -2.9400 Ti  0  0  0  0  0  0  0  0  0  0  0  0
   -3.6784    1.2814    0.6007 C   0  0  0  0  0  0  0  0  0  0  0  0
    4.1282    0.4828    0.3873 C   0  0  0  0  0  0  0  0  0  0  0  0
    0.4555    2.2672    0.3497 C   0  0  0  0  0  0  0  0  0  0  0  0
   -3.6667    2.1188   -0.3139 C   0  0  0  0  0  0  0  0  0  0  0  0
    4.1160    0.6322    1.6214 C   0  0  0  0  0  0  0  0  0  0  0  0
   -0.6352    2.7410   -0.1189 C   0  0  0  0  0  0  0  0  0  0  0  0
    1.6301    1.7810    0.7342 C   0  0  0  0  0  0  0  0  0  0  0  0
   -3.0935   -1.9569    1.0379 O   0  0  0  0  0  0  0  0  0  0  0  0
   -0.4872   -2.6058    2.7012 O   0  0  0  0  0  0  0  0  0  0  0  0
    0.3141   -2.8889    0.1450 O   0  0  0  0  0  0  0  0  0  0  0  0
   -0.8008   -0.4359    0.9712 O   0  0  0  0  0  0  0  0  0  0  0  0
    1.9029   -1.1583    1.4694 O   0  0  0  0  0  0  0  0  0  0  0  0
   -2.3227   -0.1139    3.0248 O   0  0  0  0  0  0  0  0  0  0  0  0
    1.0138    0.4416    3.5688 O   0  0  0  0  0  0  0  0  0  0  0  0
   -1.7720   -4.5879   -1.6528 O   0  0  0  0  0  0  0  0  0  0  0  0
    0.1906   -1.1892   -3.5340 O   0  0  0  0  0  0  0  0  0  0  0  0
    2.8314   -2.1702   -1.9180 O   0  0  0  0  0  0  0  0  0  0  0  0
   -2.0546   -0.2244   -1.3375 O   0  0  0  0  0  0  0  0  0  0  0  0
    0.7685   -0.3906   -1.0637 O   0  0  0  0  0  0  0  0  0  0  0  0
   -0.9000    1.6493   -2.8186 O   0  0  0  0  0  0  0  0  0  0  0  0
    2.4153    1.3575   -2.2641 O   0  0  0  0  0  0  0  0  0  0  0  0
  1  2  1  0  0  0  0
  2  3  2  0  0  0  0
  2  4  1  0  0  0  0
  4  5  4  0  0  0  0
  5  6  1  0  0  0  0
  5  7  4  0  0  0  0
  7  8  4  0  0  0  0
  8  9  4  0  0  0  0
  9 10  4  0  0  0  0
 10 11  1  0  0  0  0
 11 12  1  0  0  0  0
 12 13  4  0  0  0  0
 13 14  4  0  0  0  0
 14 15  4  0  0  0  0
 15 16  1  0  0  0  0
 16 17  1  0  0  0  0
 17 18  1  0  0  0  0
 18 19  1  0  0  0  0
 19 20  1  0  0  0  0
 16 21  1  0  0  0  0
 20 21  1  0  0  0  0
 15 22  4  0  0  0  0
 12 23  4  0  0  0  0
 22 23  4  0  0  0  0
 10 24  4  0  0  0  0
  7 25  4  0  0  0  0
 24 25  4  0  0  0  0
  4 26  1  0  0  0  0
 25 26  4  0  0  0  0
 26 27  1  0  0  0  0
 27 28  1  0  0  0  0
 28 29  1  0  0  0  0
 29 30  1  0  0  0  0
 27 31  1  0  0  0  0
 30 31  1  0  0  0  0
  1 32  1  0  0  0  0
  1 33  1  0  0  0  0
  1 34  1  0  0  0  0
  6 35  1  0  0  0  0
  6 36  1  0  0  0  0
  6 37  1  0  0  0  0
  8 38  1  0  0  0  0
 11 39  1  0  0  0  0
 13 40  1  0  0  0  0
 14 41  1  0  0  0  0
 17 42  1  0  0  0  0
 17 43  1  0  0  0  0
 18 44  1  0  0  0  0
 18 45  1  0  0  0  0
 19 46  1  0  0  0  0
 20 47  1  0  0  0  0
 20 48  1  0  0  0  0
 21 49  1  0  0  0  0
 21 50  1  0  0  0  0
 22 51  1  0  0  0  0
 27 52  1  0  0  0  0
 28 53  1  0  0  0  0
 28 54  1  0  0  0  0
 29 55  1  0  0  0  0
 29 56  1  0  0  0  0
 30 57  1  0  0  0  0
 30 58  1  0  0  0  0
 31 59  1  0  0  0  0
 31 60  1  0  0  0  0
 61 67  1  0  0  0  0
 67 68  1  0  0  0  0
 63 69  1  0  0  0  0
 64 73  1  0  0  0  0
 71 74  1  0  0  0  0
 70 76  1  0  0  0  0
 73 76  3  0  0  0  0
 65 77  1  0  0  0  0
 74 77  3  0  0  0  0
 70 78  1  0  0  0  0
 75 78  2  0  0  0  0
 65 79  1  0  0  0  0
 71 79  1  0  0  0  0
 75 79  2  0  0  0  0
 61 80  1  0  0  0  0
 64 80  1  0  0  0  0
 61 81  1  0  0  0  0
 62 81  1  0  0  0  0
 62 82  1  0  0  0  0
 63 82  1  0  0  0  0
 62 83  1  0  0  0  0
 64 83  1  0  0  0  0
 62 84  1  0  0  0  0
 65 84  1  0  0  0  0
 64 85  1  0  0  0  0
 66 85  1  0  0  0  0
 65 86  1  0  0  0  0
 66 86  1  0  0  0  0
 67 87  2  0  0  0  0
 68 88  1  0  0  0  0
 69 88  1  0  0  0  0
 63 89  1  0  0  0  0
 69 89  1  0  0  0  0
 68 90  1  0  0  0  0
 70 90  1  0  0  0  0
 68 91  1  0  0  0  0
 71 91  1  0  0  0  0
 70 92  1  0  0  0  0
 72 92  1  0  0  0  0
 71 93  1  0  0  0  0
 72 93  1  0  0  0  0
M  END
