 xtb: 6.7.1pre (5071a88)
          08312620393D

 93106  0     0  0            999 V2000
   -6.7033    2.4590    5.2461 C   0  0  0  0  0  0  0  0  0  0  0  0
   -6.0677    1.1574    5.6697 C   0  0  0  0  0  0  0  0  0  0  0  0
   -6.7857    0.1898    5.9137 O   0  0  0  0  0  0  0  0  0  0  0  0
   -4.6125    1.1142    5.7733 C   0  0  0  0  0  0  0  0  0  0  0  0
   -3.7537    2.1040    6.2692 C   0  0  0  0  0  0  0  0  0  0  0  0
   -4.1253    3.4311    6.8396 C   0  0  0  0  0  0  0  0  0  0  0  0
   -2.4230    1.6063    6.1708 C   0  0  0  0  0  0  0  0  0  0  0  0
   -1.1477    2.0669    6.4750 C   0  0  0  0  0  0  0  0  0  0  0  0
   -0.0746    1.2787    6.2434 N   0  0  0  0  0  0  0  0  0  0  0  0
   -0.2527    0.0486    5.7239 C   0  0  0  0  0  0  0  0  0  0  0  0
    0.8267   -0.7821    5.4763 N   0  0  0  0  0  0  0  0  0  0  0  0
    2.1946   -0.6866    5.6381 C   0  0  0  0  0  0  0  0  0  0  0  0
    2.8515    0.4205    6.1529 C   0  0  0  0  0  0  0  0  0  0  0  0
    4.2485    0.4175    6.2730 C   0  0  0  0  0  0  0  0  0  0  0  0
    5.0007   -0.6862    5.8797 C   0  0  0  0  0  0  0  0  0  0  0  0
    6.3928   -0.7624    5.9662 N   0  0  0  0  0  0  0  0  0  0  0  0
    7.1508    0.1800    6.8116 C   0  0  0  0  0  0  0  0  0  0  0  0
    7.9119    1.2115    5.9523 C   0  0  0  0  0  0  0  0  0  0  0  0
    8.8767    0.6312    4.9964 N   0  0  0  0  0  0  0  0  0  0  0  0
    8.5653   -0.7828    4.7080 C   0  0  0  0  0  0  0  0  0  0  0  0
    7.0555   -1.1147    4.6833 C   0  0  0  0  0  0  0  0  0  0  0  0
    4.2417   -1.7486    5.3813 C   0  0  0  0  0  0  0  0  0  0  0  0
    2.8888   -1.7750    5.2492 N   0  0  0  0  0  0  0  0  0  0  0  0
   -1.4465   -0.4758    5.4034 N   0  0  0  0  0  0  0  0  0  0  0  0
   -2.4908    0.3346    5.6435 C   0  0  0  0  0  0  0  0  0  0  0  0
   -3.8159    0.0332    5.4038 N   0  0  0  0  0  0  0  0  0  0  0  0
   -4.2175   -1.2384    4.8211 C   0  0  0  0  0  0  0  0  0  0  0  0
   -4.8099   -2.2384    5.8180 C   0  0  0  0  0  0  0  0  0  0  0  0
   -5.6027   -3.1882    4.9330 C   0  0  0  0  0  0  0  0  0  0  0  0
   -6.2282   -2.2744    3.8895 C   0  0  0  0  0  0  0  0  0  0  0  0
   -5.1791   -1.1960    3.6192 C   0  0  0  0  0  0  0  0  0  0  0  0
   -6.0684    2.9877    4.5300 H   0  0  0  0  0  0  0  0  0  0  0  0
   -6.8952    3.0841    6.1207 H   0  0  0  0  0  0  0  0  0  0  0  0
   -7.6549    2.2462    4.7489 H   0  0  0  0  0  0  0  0  0  0  0  0
   -3.2942    3.8749    7.3968 H   0  0  0  0  0  0  0  0  0  0  0  0
   -4.4020    4.1269    6.0418 H   0  0  0  0  0  0  0  0  0  0  0  0
   -4.9647    3.3336    7.5351 H   0  0  0  0  0  0  0  0  0  0  0  0
   -0.9463    3.0434    6.8980 H   0  0  0  0  0  0  0  0  0  0  0  0
    0.5432   -1.6682    5.0906 H   0  0  0  0  0  0  0  0  0  0  0  0
    2.3068    1.3038    6.4639 H   0  0  0  0  0  0  0  0  0  0  0  0
    4.7161    1.3183    6.6543 H   0  0  0  0  0  0  0  0  0  0  0  0
    6.5303    0.6833    7.5599 H   0  0  0  0  0  0  0  0  0  0  0  0
    7.8774   -0.4026    7.3934 H   0  0  0  0  0  0  0  0  0  0  0  0
    7.1893    1.8051    5.3796 H   0  0  0  0  0  0  0  0  0  0  0  0
    8.4440    1.9108    6.6070 H   0  0  0  0  0  0  0  0  0  0  0  0
    9.8182    0.6824    5.3837 H   0  0  0  0  0  0  0  0  0  0  0  0
    9.0538   -1.4109    5.4640 H   0  0  0  0  0  0  0  0  0  0  0  0
    9.0113   -1.0455    3.7427 H   0  0  0  0  0  0  0  0  0  0  0  0
    6.5920   -0.5654    3.8525 H   0  0  0  0  0  0  0  0  0  0  0  0
    6.9397   -2.1873    4.4897 H   0  0  0  0  0  0  0  0  0  0  0  0
    4.7242   -2.6721    5.0735 H   0  0  0  0  0  0  0  0  0  0  0  0
   -3.3001   -1.6996    4.4289 H   0  0  0  0  0  0  0  0  0  0  0  0
   -4.0300   -2.7637    6.3795 H   0  0  0  0  0  0  0  0  0  0  0  0
   -5.4656   -1.7595    6.5510 H   0  0  0  0  0  0  0  0  0  0  0  0
   -4.9282   -3.9049    4.4495 H   0  0  0  0  0  0  0  0  0  0  0  0
   -6.3528   -3.7518    5.4951 H   0  0  0  0  0  0  0  0  0  0  0  0
   -6.5036   -2.8166    2.9798 H   0  0  0  0  0  0  0  0  0  0  0  0
   -7.1405   -1.8192    4.2901 H   0  0  0  0  0  0  0  0  0  0  0  0
   -5.6438   -0.2237    3.4372 H   0  0  0  0  0  0  0  0  0  0  0  0
   -4.6248   -1.4446    2.7052 H   0  0  0  0  0  0  0  0  0  0  0  0
   -3.0000   -2.6000    1.2500 Ti  0  0  0  0  0  0  0  0  0  0  0  0
    0.0000   -2.6000    1.2500 Ti  0  0  0  0  0  0  0  0  0  0  0  0
    3.0000   -2.6000    1.2500 Ti  0  0  0  0  0  0  0  0  0  0  0  0
   -1.5000    0.0000    1.2500 Ti  0  0  0  0  0  0  0  0  0  0  0  0
    1.5000    0.0000    1.2500 Ti  0  0  0  0  0  0  0  0  0  0  0  0
    0.0000    2.6000    1.2500 Ti  0  0  0  0  0  0  0  0  0  0  0  0
   -3.0000   -2.6000   -1.2500 Ti  0  0  0  0  0  0  0  0  0  0  0  0
    0.0000   -2.6000   -1.2500 Ti  0  0  0  0  0  0  0  0  0  0  0  0
    3.0000   -2.6000   -1.2500 Ti  0  0  0  0  0  0  0  0  0  0  0  0
   -1.5000    0.0000   -1.2500 Ti  0  0  0  0  0  0  0  0  0  0  0  0
    1.5000    0.0000   -1.2500 Ti  0  0  0  0  0  0  0  0  0  0  0  0
    0.0000    2.6000   -1.2500 Ti  0  0  0  0  0  0  0  0  0  0  0  0
   -1.5000   -1.3000    0.0000 C   0  0  0  0  0  0  0  0  0  0  0  0
    1.5000   -1.3000    0.0000 C   0  0  0  0  0  0  0  0  0  0  0  0
    0.0000    1.3000    0.0000 C   0  0  0  0  0  0  0  0  0  0  0  0
   -3.0000    0.0000    0.0000 C   0  0  0  0  0  0  0  0  0  0  0  0
    3.0000    0.0000    0.0000 C   0  0  0  0  0  0  0  0  0  0  0  0
   -1.5000    2.6000    0.0000 C   0  0  0  0  0  0  0  0  0  0  0  0
    1.5000    2.6000    0.0000 C   0  0  0  0  0  0  0  0  0  0  0  0
   -3.0000   -2.6000    2.4500 O   0  0  0  0  0  0  0  0  0  0  0  0
    0.0000   -2.6000    2.4500 O   0  0  0  0  0  0  0  0  0  0  0  0
    3.0000   -2.6000    2.4500 O   0  0  0  0  0  0  0  0  0  0  0  0
   -1.5000    0.0000    2.4500 O   0  0  0  0  0  0  0  0  0  0  0  0
    1.5000    0.0000    2.4500 O   0  0  0  0  0  0  0  0  0  0  0  0
   -1.5000    2.6000    2.4500 O   0  0  0  0  0  0  0  0  0  0  0  0
    1.5000    2.6000    2.4500 O   0  0  0  0  0  0  0  0  0  0  0  0
   -3.0000   -2.6000   -2.4500 O   0  0  0  0  0  0  0  0  0  0  0  0
    0.0000   -2.6000   -2.4500 O   0  0  0  0  0  0  0  0  0  0  0  0
    3.0000   -2.6000   -2.4500 O   0  0  0  0  0  0  0  0  0  0  0  0
   -1.5000    0.0000   -2.4500 O   0  0  0  0  0  0  0  0  0  0  0  0
    1.5000    0.0000   -2.4500 O   0  0  0  0  0  0  0  0  0  0  0  0
   -1.5000    2.6000   -2.4500 O   0  0  0  0  0  0  0  0  0  0  0  0
    1.5000    2.6000   -2.4500 O   0  0  0  0  0  0  0  0  0  0  0  0
  1  2  1  0  0  0  0
  2  3  2  0  0  0  0
  2  4  1  0  0  0  0
  4  5  4  0  0  0  0
  5  6  1  0  0  0  0
  5  7  4  0  0  0  0
  7  8  4  0  0  0  0
  8  9  4  0  0  0  0
  9 10  4  0  0  0  0
 10 11  1  0  0  0  0
 11 12  1  0  0  0  0
 12 13  4  0  0  0  0
 13 14  4  0  0  0  0
 14 15  4  0  0  0  0
 15 16  1  0  0  0  0
 16 17  1  0  0  0  0
 17 18  1  0  0  0  0
 18 19  1  0  0  0  0
 19 20  1  0  0  0  0
 16 21  1  0  0  0  0
 20 21  1  0  0  0  0
 15 22  4  0  0  0  0
 12 23  4  0  0  0  0
 22 23  4  0  0  0  0
 10 24  4  0  0  0  0
  7 25  4  0  0  0  0
 24 25  4  0  0  0  0
  4 26  1  0  0  0  0
 25 26  1  0  0  0  0
 26 27  1  0  0  0  0
 27 28  1  0  0  0  0
 28 29  1  0  0  0  0
 29 30  1  0  0  0  0
 27 31  1  0  0  0  0
 30 31  1  0  0  0  0
  1 32  1  0  0  0  0
  1 33  1  0  0  0  0
  1 34  1  0  0  0  0
  6 35  1  0  0  0  0
  6 36  1  0  0  0  0
  6 37  1  0  0  0  0
  8 38  1  0  0  0  0
 11 39  1  0  0  0  0
 13 40  1  0  0  0  0
 14 41  1  0  0  0  0
 17 42  1  0  0  0  0
 17 43  1  0  0  0  0
 18 44  1  0  0  0  0
 18 45  1  0  0  0  0
 19 46  1  0  0  0  0
 20 47  1  0  0  0  0
 20 48  1  0  0  0  0
 21 49  1  0  0  0  0
 21 50  1  0  0  0  0
 22 51  1  0  0  0  0
 27 52  1  0  0  0  0
 28 53  1  0  0  0  0
 28 54  1  0  0  0  0
 29 55  1  0  0  0  0
 29 56  1  0  0  0  0
 30 57  1  0  0  0  0
 30 58  1  0  0  0  0
 31 59  1  0  0  0  0
 31 60  1  0  0  0  0
 62 63  1  0  0  0  0
 61 67  1  0  0  0  0
 62 68  1  0  0  0  0
 67 68  1  0  0  0  0
 63 69  1  0  0  0  0
 68 69  1  0  0  0  0
 64 73  1  0  0  0  0
 70 73  1  0  0  0  0
 65 74  1  0  0  0  0
 71 74  1  0  0  0  0
 66 75  1  0  0  0  0
 72 75  1  0  0  0  0
 64 76  1  0  0  0  0
 70 76  1  0  0  0  0
 73 76  1  0  0  0  0
 65 77  1  0  0  0  0
 71 77  1  0  0  0  0
 74 77  1  0  0  0  0
 66 78  1  0  0  0  0
 72 78  1  0  0  0  0
 75 78  1  0  0  0  0
 66 79  1  0  0  0  0
 72 79  1  0  0  0  0
 75 79  1  0  0  0  0
 61 80  2  0  0  0  0
 62 81  2  0  0  0  0
 63 82  2  0  0  0  0
 64 83  2  0  0  0  0
 65 84  2  0  0  0  0
 66 85  1  0  0  0  0
 78 85  1  0  0  0  0
 66 86  1  0  0  0  0
 79 86  1  0  0  0  0
 67 87  2  0  0  0  0
 68 88  2  0  0  0  0
 69 89  2  0  0  0  0
 70 90  2  0  0  0  0
 71 91  2  0  0  0  0
 72 92  1  0  0  0  0
 78 92  1  0  0  0  0
 72 93  1  0  0  0  0
 79 93  1  0  0  0  0
M  END
