 xtb: 6.7.1pre (5071a88)
          08312621563D

 93105  0     0  0            999 V2000
   -6.6240   -2.2780   11.3468 C   0  0  0  0  0  0  0  0  0  0  0  0
   -5.8765   -0.9959   11.0728 C   0  0  0  0  0  0  0  0  0  0  0  0
   -6.4971    0.0655   11.0503 O   0  0  0  0  0  0  0  0  0  0  0  0
   -4.4369   -1.0818   10.8458 C   0  0  0  0  0  0  0  0  0  0  0  0
   -3.5104   -1.9153   11.4862 C   0  0  0  0  0  0  0  0  0  0  0  0
   -3.7663   -2.8937   12.5828 C   0  0  0  0  0  0  0  0  0  0  0  0
   -2.2297   -1.6469   10.9241 C   0  0  0  0  0  0  0  0  0  0  0  0
   -0.9336   -2.1186   11.0977 C   0  0  0  0  0  0  0  0  0  0  0  0
    0.0723   -1.6040   10.3607 N   0  0  0  0  0  0  0  0  0  0  0  0
   -0.1870   -0.6133    9.4872 C   0  0  0  0  0  0  0  0  0  0  0  0
    0.8311   -0.0830    8.6927 N   0  0  0  0  0  0  0  0  0  0  0  0
    2.1451    0.2040    9.0950 C   0  0  0  0  0  0  0  0  0  0  0  0
    3.0552    0.5876    8.1146 C   0  0  0  0  0  0  0  0  0  0  0  0
    4.3803    0.8852    8.4600 C   0  0  0  0  0  0  0  0  0  0  0  0
    4.8176    0.8012    9.7810 C   0  0  0  0  0  0  0  0  0  0  0  0
    6.1167    1.0842   10.1890 N   0  0  0  0  0  0  0  0  0  0  0  0
    6.6677    0.2620   11.2923 C   0  0  0  0  0  0  0  0  0  0  0  0
    8.2150    0.2795   11.3186 C   0  0  0  0  0  0  0  0  0  0  0  0
    8.8541   -0.0642   10.0336 N   0  0  0  0  0  0  0  0  0  0  0  0
    8.1762    0.6056    8.9004 C   0  0  0  0  0  0  0  0  0  0  0  0
    7.1275    1.6685    9.2912 C   0  0  0  0  0  0  0  0  0  0  0  0
    3.8167    0.4205   10.6828 C   0  0  0  0  0  0  0  0  0  0  0  0
    2.5250    0.1243   10.3795 N   0  0  0  0  0  0  0  0  0  0  0  0
   -1.4087   -0.1106    9.2348 N   0  0  0  0  0  0  0  0  0  0  0  0
   -2.3868   -0.6513    9.9827 C   0  0  0  0  0  0  0  0  0  0  0  0
   -3.7216   -0.3032    9.9382 N   0  0  0  0  0  0  0  0  0  0  0  0
   -4.2194    0.7089    9.0201 C   0  0  0  0  0  0  0  0  0  0  0  0
   -4.6723    2.0276    9.6666 C   0  0  0  0  0  0  0  0  0  0  0  0
   -5.9396    2.4421    8.9175 C   0  0  0  0  0  0  0  0  0  0  0  0
   -5.9445    1.6149    7.6393 C   0  0  0  0  0  0  0  0  0  0  0  0
   -5.3430    0.2843    8.0681 C   0  0  0  0  0  0  0  0  0  0  0  0
   -6.6100   -2.4990   12.4162 H   0  0  0  0  0  0  0  0  0  0  0  0
   -6.1956   -3.1078   10.7782 H   0  0  0  0  0  0  0  0  0  0  0  0
   -7.6637   -2.1607   11.0255 H   0  0  0  0  0  0  0  0  0  0  0  0
   -4.4092   -2.4551   13.3522 H   0  0  0  0  0  0  0  0  0  0  0  0
   -2.8366   -3.1971   13.0745 H   0  0  0  0  0  0  0  0  0  0  0  0
   -4.2448   -3.7951   12.1883 H   0  0  0  0  0  0  0  0  0  0  0  0
   -0.6633   -2.8965   11.8009 H   0  0  0  0  0  0  0  0  0  0  0  0
    0.4213    0.6824    8.1774 H   0  0  0  0  0  0  0  0  0  0  0  0
    2.7497    0.6404    7.0744 H   0  0  0  0  0  0  0  0  0  0  0  0
    5.0518    1.1519    7.6523 H   0  0  0  0  0  0  0  0  0  0  0  0
    6.2959    0.6373   12.2527 H   0  0  0  0  0  0  0  0  0  0  0  0
    6.3451   -0.7818   11.1812 H   0  0  0  0  0  0  0  0  0  0  0  0
    8.5718   -0.4168   12.0859 H   0  0  0  0  0  0  0  0  0  0  0  0
    8.5642    1.2735   11.6251 H   0  0  0  0  0  0  0  0  0  0  0  0
    8.7744   -1.0715    9.8899 H   0  0  0  0  0  0  0  0  0  0  0  0
    8.9426    1.0671    8.2685 H   0  0  0  0  0  0  0  0  0  0  0  0
    7.6845   -0.1644    8.2927 H   0  0  0  0  0  0  0  0  0  0  0  0
    6.7033    2.1330    8.3966 H   0  0  0  0  0  0  0  0  0  0  0  0
    7.6247    2.4899    9.8239 H   0  0  0  0  0  0  0  0  0  0  0  0
    4.0234    0.3514   11.7469 H   0  0  0  0  0  0  0  0  0  0  0  0
   -3.3774    0.9739    8.3653 H   0  0  0  0  0  0  0  0  0  0  0  0
   -4.8520    1.9560   10.7436 H   0  0  0  0  0  0  0  0  0  0  0  0
   -3.8924    2.7875    9.5330 H   0  0  0  0  0  0  0  0  0  0  0  0
   -5.9625    3.5166    8.7119 H   0  0  0  0  0  0  0  0  0  0  0  0
   -6.8240    2.2031    9.5186 H   0  0  0  0  0  0  0  0  0  0  0  0
   -5.3102    2.0896    6.8812 H   0  0  0  0  0  0  0  0  0  0  0  0
   -6.9489    1.5021    7.2214 H   0  0  0  0  0  0  0  0  0  0  0  0
   -4.9593   -0.2832    7.2137 H   0  0  0  0  0  0  0  0  0  0  0  0
   -6.1057   -0.3332    8.5484 H   0  0  0  0  0  0  0  0  0  0  0  0
   -2.1419   -3.0088    2.1197 Ti  0  0  0  0  0  0  0  0  0  0  0  0
    0.2890   -1.6948    1.4324 Ti  0  0  0  0  0  0  0  0  0  0  0  0
    1.9031   -3.0677   -0.7293 Ti  0  0  0  0  0  0  0  0  0  0  0  0
   -2.5215   -0.2519    1.3037 Ti  0  0  0  0  0  0  0  0  0  0  0  0
    2.1420    0.4995    2.2044 Ti  0  0  0  0  0  0  0  0  0  0  0  0
   -0.6814    0.1896    3.6812 Ti  0  0  0  0  0  0  0  0  0  0  0  0
   -2.0368   -3.0777   -1.2005 Ti  0  0  0  0  0  0  0  0  0  0  0  0
   -0.6053   -0.7709   -2.0351 Ti  0  0  0  0  0  0  0  0  0  0  0  0
    1.9455   -1.5873   -3.4124 Ti  0  0  0  0  0  0  0  0  0  0  0  0
   -1.8782    1.7466   -1.2400 Ti  0  0  0  0  0  0  0  0  0  0  0  0
    2.4125    0.4542   -0.7742 Ti  0  0  0  0  0  0  0  0  0  0  0  0
    0.8177    1.8385   -2.9400 Ti  0  0  0  0  0  0  0  0  0  0  0  0
   -3.6784    1.2814    0.6007 C   0  0  0  0  0  0  0  0  0  0  0  0
    4.1282    0.4828    0.3873 C   0  0  0  0  0  0  0  0  0  0  0  0
    0.4555    2.2672    0.3497 C   0  0  0  0  0  0  0  0  0  0  0  0
   -3.6667    2.1188   -0.3139 C   0  0  0  0  0  0  0  0  0  0  0  0
    4.1160    0.6322    1.6214 C   0  0  0  0  0  0  0  0  0  0  0  0
   -0.6352    2.7410   -0.1189 C   0  0  0  0  0  0  0  0  0  0  0  0
    1.6301    1.7810    0.7342 C   0  0  0  0  0  0  0  0  0  0  0  0
   -3.0935   -1.9569    1.0379 O   0  0  0  0  0  0  0  0  0  0  0  0
   -0.4872   -2.6058    2.7012 O   0  0  0  0  0  0  0  0  0  0  0  0
    0.3141   -2.8889    0.1450 O   0  0  0  0  0  0  0  0  0  0  0  0
   -0.8008   -0.4359    0.9712 O   0  0  0  0  0  0  0  0  0  0  0  0
    1.9029   -1.1583    1.4694 O   0  0  0  0  0  0  0  0  0  0  0  0
   -2.3227   -0.1139    3.0248 O   0  0  0  0  0  0  0  0  0  0  0  0
    1.0138    0.4416    3.5688 O   0  0  0  0  0  0  0  0  0  0  0  0
   -1.7720   -4.5879   -1.6528 O   0  0  0  0  0  0  0  0  0  0  0  0
    0.1906   -1.1892   -3.5340 O   0  0  0  0  0  0  0  0  0  0  0  0
    2.8314   -2.1702   -1.9180 O   0  0  0  0  0  0  0  0  0  0  0  0
   -2.0546   -0.2244   -1.3375 O   0  0  0  0  0  0  0  0  0  0  0  0
    0.7685   -0.3906   -1.0637 O   0  0  0  0  0  0  0  0  0  0  0  0
   -0.9000    1.6493   -2.8186 O   0  0  0  0  0  0  0  0  0  0  0  0
    2.4153    1.3575   -2.2641 O   0  0  0  0  0  0  0  0  0  0  0  0
  1  2  1  0  0  0  0
  2  3  2  0  0  0  0
  2  4  1  0  0  0  0
  4  5  4  0  0  0  0
  5  6  1  0  0  0  0
  5  7  4  0  0  0  0
  7  8  4  0  0  0  0
  8  9  4  0  0  0  0
  9 10  4  0  0  0  0
 10 11  1  0  0  0  0
 11 12  1  0  0  0  0
 12 13  4  0  0  0  0
 13 14  4  0  0  0  0
 14 15  4  0  0  0  0
 15 16  1  0  0  0  0
 16 17  1  0  0  0  0
 17 18  1  0  0  0  0
 18 19  1  0  0  0  0
 19 20  1  0  0  0  0
 16 21  1  0  0  0  0
 20 21  1  0  0  0  0
 15 22  4  0  0  0  0
 12 23  4  0  0  0  0
 22 23  4  0  0  0  0
 10 24  4  0  0  0  0
  7 25  4  0  0  0  0
 24 25  4  0  0  0  0
  4 26  1  0  0  0  0
 25 26  1  0  0  0  0
 26 27  1  0  0  0  0
 27 28  1  0  0  0  0
 28 29  1  0  0  0  0
 29 30  1  0  0  0  0
 27 31  1  0  0  0  0
 30 31  1  0  0  0  0
  1 32  1  0  0  0  0
  1 33  1  0  0  0  0
  1 34  1  0  0  0  0
  6 35  1  0  0  0  0
  6 36  1  0  0  0  0
  6 37  1  0  0  0  0
  8 38  1  0  0  0  0
 11 39  1  0  0  0  0
 13 40  1  0  0  0  0
 14 41  1  0  0  0  0
 17 42  1  0  0  0  0
 17 43  1  0  0  0  0
 18 44  1  0  0  0  0
 18 45  1  0  0  0  0
 19 46  1  0  0  0  0
 20 47  1  0  0  0  0
 20 48  1  0  0  0  0
 21 49  1  0  0  0  0
 21 50  1  0  0  0  0
 22 51  1  0  0  0  0
 27 52  1  0  0  0  0
 28 53  1  0  0  0  0
 28 54  1  0  0  0  0
 29 55  1  0  0  0  0
 29 56  1  0  0  0  0
 30 57  1  0  0  0  0
 30 58  1  0  0  0  0
 31 59  1  0  0  0  0
 31 60  1  0  0  0  0
 61 67  1  0  0  0  0
 67 68  1  0  0  0  0
 63 69  1  0  0  0  0
 64 73  1  0  0  0  0
 71 74  1  0  0  0  0
 70 76  1  0  0  0  0
 73 76  3  0  0  0  0
 65 77  1  0  0  0  0
 74 77  3  0  0  0  0
 70 78  1  0  0  0  0
 75 78  2  0  0  0  0
 65 79  1  0  0  0  0
 71 79  1  0  0  0  0
 75 79  2  0  0  0  0
 61 80  1  0  0  0  0
 64 80  1  0  0  0  0
 61 81  1  0  0  0  0
 62 81  1  0  0  0  0
 62 82  1  0  0  0  0
 63 82  1  0  0  0  0
 62 83  1  0  0  0  0
 64 83  1  0  0  0  0
 62 84  1  0  0  0  0
 65 84  1  0  0  0  0
 64 85  1  0  0  0  0
 66 85  1  0  0  0  0
 65 86  1  0  0  0  0
 66 86  1  0  0  0  0
 67 87  2  0  0  0  0
 68 88  1  0  0  0  0
 69 88  1  0  0  0  0
 63 89  1  0  0  0  0
 69 89  1  0  0  0  0
 68 90  1  0  0  0  0
 70 90  1  0  0  0  0
 68 91  1  0  0  0  0
 71 91  1  0  0  0  0
 70 92  1  0  0  0  0
 72 92  1  0  0  0  0
 71 93  1  0  0  0  0
 72 93  1  0  0  0  0
M  END
