 xtb: 6.7.1pre (5071a88)
          08312621183D

 68 76  0     0  0            999 V2000
   -5.1119    0.6842    9.2791 C   0  0  0  0  0  0  0  0  0  0  0  0
   -4.3029   -0.1858    8.3198 C   0  0  0  0  0  0  0  0  0  0  0  0
   -4.8663   -1.6025    8.2704 C   0  0  0  0  0  0  0  0  0  0  0  0
   -2.9028   -0.2152    8.7178 N   0  0  0  0  0  0  0  0  0  0  0  0
   -2.0256    0.7906    8.3659 C   0  0  0  0  0  0  0  0  0  0  0  0
   -2.3271    1.7269    7.6345 O   0  0  0  0  0  0  0  0  0  0  0  0
   -0.6409    0.6783    8.9011 C   0  0  0  0  0  0  0  0  0  0  0  0
   -0.3672    0.0885   10.1411 C   0  0  0  0  0  0  0  0  0  0  0  0
    0.9506    0.0084   10.6028 C   0  0  0  0  0  0  0  0  0  0  0  0
    2.0073    0.5281    9.8401 C   0  0  0  0  0  0  0  0  0  0  0  0
    3.4350    0.4308   10.3346 C   0  0  0  0  0  0  0  0  0  0  0  0
    4.1136   -0.8039    9.8969 N   0  0  0  0  0  0  0  0  0  0  0  0
    4.5877   -0.6567    8.5274 N   0  0  0  0  0  0  0  0  0  0  0  0
    6.0129   -0.3238    8.5622 C   0  0  0  0  0  0  0  0  0  0  0  0
    1.7232    1.1240    8.6036 C   0  0  0  0  0  0  0  0  0  0  0  0
    0.4081    1.2062    8.1406 C   0  0  0  0  0  0  0  0  0  0  0  0
   -6.1649    0.7193    8.9812 H   0  0  0  0  0  0  0  0  0  0  0  0
   -5.0585    0.2991   10.3036 H   0  0  0  0  0  0  0  0  0  0  0  0
   -4.7318    1.7113    9.2942 H   0  0  0  0  0  0  0  0  0  0  0  0
   -4.3641    0.2515    7.3161 H   0  0  0  0  0  0  0  0  0  0  0  0
   -4.2934   -2.2223    7.5719 H   0  0  0  0  0  0  0  0  0  0  0  0
   -5.9105   -1.5975    7.9413 H   0  0  0  0  0  0  0  0  0  0  0  0
   -4.8196   -2.0846    9.2533 H   0  0  0  0  0  0  0  0  0  0  0  0
   -2.5838   -0.9813    9.2933 H   0  0  0  0  0  0  0  0  0  0  0  0
   -1.1659   -0.2859   10.7740 H   0  0  0  0  0  0  0  0  0  0  0  0
    1.1485   -0.4506   11.5694 H   0  0  0  0  0  0  0  0  0  0  0  0
    3.4245    0.4340   11.4318 H   0  0  0  0  0  0  0  0  0  0  0  0
    3.9994    1.3290   10.0520 H   0  0  0  0  0  0  0  0  0  0  0  0
    3.4350   -1.5665    9.9759 H   0  0  0  0  0  0  0  0  0  0  0  0
    4.4841   -1.5328    8.0067 H   0  0  0  0  0  0  0  0  0  0  0  0
    6.3834   -0.2175    7.5377 H   0  0  0  0  0  0  0  0  0  0  0  0
    6.5966   -1.1109    9.0518 H   0  0  0  0  0  0  0  0  0  0  0  0
    6.1919    0.6267    9.0758 H   0  0  0  0  0  0  0  0  0  0  0  0
    2.5314    1.5230    7.9931 H   0  0  0  0  0  0  0  0  0  0  0  0
    0.2041    1.6779    7.1812 H   0  0  0  0  0  0  0  0  0  0  0  0
   -2.1419   -3.0088    2.1197 Ti  0  0  0  0  0  0  0  0  0  0  0  0
    0.2890   -1.6948    1.4324 Ti  0  0  0  0  0  0  0  0  0  0  0  0
    1.9031   -3.0677   -0.7293 Ti  0  0  0  0  0  0  0  0  0  0  0  0
   -2.5215   -0.2519    1.3037 Ti  0  0  0  0  0  0  0  0  0  0  0  0
    2.1420    0.4995    2.2044 Ti  0  0  0  0  0  0  0  0  0  0  0  0
   -0.6814    0.1896    3.6812 Ti  0  0  0  0  0  0  0  0  0  0  0  0
   -2.0368   -3.0777   -1.2005 Ti  0  0  0  0  0  0  0  0  0  0  0  0
   -0.6053   -0.7709   -2.0351 Ti  0  0  0  0  0  0  0  0  0  0  0  0
    1.9455   -1.5873   -3.4124 Ti  0  0  0  0  0  0  0  0  0  0  0  0
   -1.8782    1.7466   -1.2400 Ti  0  0  0  0  0  0  0  0  0  0  0  0
    2.4125    0.4542   -0.7742 Ti  0  0  0  0  0  0  0  0  0  0  0  0
    0.8177    1.8385   -2.9400 Ti  0  0  0  0  0  0  0  0  0  0  0  0
   -3.6784    1.2814    0.6007 C   0  0  0  0  0  0  0  0  0  0  0  0
    4.1282    0.4828    0.3873 C   0  0  0  0  0  0  0  0  0  0  0  0
    0.4555    2.2672    0.3497 C   0  0  0  0  0  0  0  0  0  0  0  0
   -3.6667    2.1188   -0.3139 C   0  0  0  0  0  0  0  0  0  0  0  0
    4.1160    0.6322    1.6214 C   0  0  0  0  0  0  0  0  0  0  0  0
   -0.6352    2.7410   -0.1189 C   0  0  0  0  0  0  0  0  0  0  0  0
    1.6301    1.7810    0.7342 C   0  0  0  0  0  0  0  0  0  0  0  0
   -3.0935   -1.9569    1.0379 O   0  0  0  0  0  0  0  0  0  0  0  0
   -0.4872   -2.6058    2.7012 O   0  0  0  0  0  0  0  0  0  0  0  0
    0.3141   -2.8889    0.1450 O   0  0  0  0  0  0  0  0  0  0  0  0
   -0.8008   -0.4359    0.9712 O   0  0  0  0  0  0  0  0  0  0  0  0
    1.9029   -1.1583    1.4694 O   0  0  0  0  0  0  0  0  0  0  0  0
   -2.3227   -0.1139    3.0248 O   0  0  0  0  0  0  0  0  0  0  0  0
    1.0138    0.4416    3.5688 O   0  0  0  0  0  0  0  0  0  0  0  0
   -1.7720   -4.5879   -1.6528 O   0  0  0  0  0  0  0  0  0  0  0  0
    0.1906   -1.1892   -3.5340 O   0  0  0  0  0  0  0  0  0  0  0  0
    2.8314   -2.1702   -1.9180 O   0  0  0  0  0  0  0  0  0  0  0  0
   -2.0546   -0.2244   -1.3375 O   0  0  0  0  0  0  0  0  0  0  0  0
    0.7685   -0.3906   -1.0637 O   0  0  0  0  0  0  0  0  0  0  0  0
   -0.9000    1.6493   -2.8186 O   0  0  0  0  0  0  0  0  0  0  0  0
    2.4153    1.3575   -2.2641 O   0  0  0  0  0  0  0  0  0  0  0  0
  1  2  1  0  0  0  0
  2  3  1  0  0  0  0
  2  4  1  0  0  0  0
  4  5  4  0  0  0  0
  5  6  2  0  0  0  0
  5  7  1  0  0  0  0
  7  8  4  0  0  0  0
  8  9  4  0  0  0  0
  9 10  4  0  0  0  0
 10 11  1  0  0  0  0
 11 12  1  0  0  0  0
 12 13  1  0  0  0  0
 13 14  1  0  0  0  0
 10 15  4  0  0  0  0
  7 16  4  0  0  0  0
 15 16  4  0  0  0  0
  1 17  1  0  0  0  0
  1 18  1  0  0  0  0
  1 19  1  0  0  0  0
  2 20  1  0  0  0  0
  3 21  1  0  0  0  0
  3 22  1  0  0  0  0
  3 23  1  0  0  0  0
  4 24  1  0  0  0  0
  8 25  1  0  0  0  0
  9 26  1  0  0  0  0
 11 27  1  0  0  0  0
 11 28  1  0  0  0  0
 12 29  1  0  0  0  0
 13 30  1  0  0  0  0
 14 31  1  0  0  0  0
 14 32  1  0  0  0  0
 14 33  1  0  0  0  0
 15 34  1  0  0  0  0
 16 35  1  0  0  0  0
 36 42  1  0  0  0  0
 42 43  1  0  0  0  0
 38 44  1  0  0  0  0
 39 48  1  0  0  0  0
 46 49  1  0  0  0  0
 45 51  1  0  0  0  0
 48 51  3  0  0  0  0
 40 52  1  0  0  0  0
 49 52  3  0  0  0  0
 45 53  1  0  0  0  0
 50 53  2  0  0  0  0
 40 54  1  0  0  0  0
 46 54  1  0  0  0  0
 50 54  2  0  0  0  0
 36 55  1  0  0  0  0
 39 55  1  0  0  0  0
 36 56  1  0  0  0  0
 37 56  1  0  0  0  0
 37 57  1  0  0  0  0
 38 57  1  0  0  0  0
 37 58  1  0  0  0  0
 39 58  1  0  0  0  0
 37 59  1  0  0  0  0
 40 59  1  0  0  0  0
 39 60  1  0  0  0  0
 41 60  1  0  0  0  0
 40 61  1  0  0  0  0
 41 61  1  0  0  0  0
 42 62  2  0  0  0  0
 43 63  1  0  0  0  0
 44 63  1  0  0  0  0
 38 64  1  0  0  0  0
 44 64  1  0  0  0  0
 43 65  1  0  0  0  0
 45 65  1  0  0  0  0
 43 66  1  0  0  0  0
 46 66  1  0  0  0  0
 45 67  1  0  0  0  0
 47 67  1  0  0  0  0
 46 68  1  0  0  0  0
 47 68  1  0  0  0  0
M  END
