 xtb: 6.7.1pre (5071a88)
          08312621543D

 68 76  0     0  0            999 V2000
   -5.3021   -0.5393    9.5958 C   0  0  0  0  0  0  0  0  0  0  0  0
   -4.4929    0.5710    8.9335 C   0  0  0  0  0  0  0  0  0  0  0  0
   -5.0355    0.8790    7.5397 C   0  0  0  0  0  0  0  0  0  0  0  0
   -3.0887    0.1901    8.8660 N   0  0  0  0  0  0  0  0  0  0  0  0
   -2.0905    1.1412    8.7771 C   0  0  0  0  0  0  0  0  0  0  0  0
   -2.2978    2.3483    8.8252 O   0  0  0  0  0  0  0  0  0  0  0  0
   -0.7071    0.6277    8.5722 C   0  0  0  0  0  0  0  0  0  0  0  0
    0.2207    1.4548    7.9282 C   0  0  0  0  0  0  0  0  0  0  0  0
    1.5301    1.0157    7.7151 C   0  0  0  0  0  0  0  0  0  0  0  0
    1.9320   -0.2550    8.1490 C   0  0  0  0  0  0  0  0  0  0  0  0
    3.3492   -0.7355    7.9267 C   0  0  0  0  0  0  0  0  0  0  0  0
    4.0565   -0.8847    9.2026 N   0  0  0  0  0  0  0  0  0  0  0  0
    5.3951   -1.4080    9.0444 N   0  0  0  0  0  0  0  0  0  0  0  0
    6.3486   -0.3714    8.6657 C   0  0  0  0  0  0  0  0  0  0  0  0
    1.0022   -1.0724    8.8104 C   0  0  0  0  0  0  0  0  0  0  0  0
   -0.3077   -0.6346    9.0259 C   0  0  0  0  0  0  0  0  0  0  0  0
   -5.2456   -1.4707    9.0214 H   0  0  0  0  0  0  0  0  0  0  0  0
   -4.9208   -0.7489   10.6013 H   0  0  0  0  0  0  0  0  0  0  0  0
   -6.3559   -0.2560    9.6851 H   0  0  0  0  0  0  0  0  0  0  0  0
   -4.5716    1.4766    9.5468 H   0  0  0  0  0  0  0  0  0  0  0  0
   -4.9528    0.0070    6.8812 H   0  0  0  0  0  0  0  0  0  0  0  0
   -6.0891    1.1731    7.5871 H   0  0  0  0  0  0  0  0  0  0  0  0
   -4.4784    1.6976    7.0718 H   0  0  0  0  0  0  0  0  0  0  0  0
   -2.8768   -0.7498    8.5600 H   0  0  0  0  0  0  0  0  0  0  0  0
   -0.0763    2.4461    7.5904 H   0  0  0  0  0  0  0  0  0  0  0  0
    2.2323    1.6770    7.2121 H   0  0  0  0  0  0  0  0  0  0  0  0
    3.8744   -0.0305    7.2716 H   0  0  0  0  0  0  0  0  0  0  0  0
    3.3055   -1.6951    7.3959 H   0  0  0  0  0  0  0  0  0  0  0  0
    4.0291   -0.0076    9.7289 H   0  0  0  0  0  0  0  0  0  0  0  0
    5.4412   -2.2027    8.4019 H   0  0  0  0  0  0  0  0  0  0  0  0
    6.1513    0.0222    7.6639 H   0  0  0  0  0  0  0  0  0  0  0  0
    6.3442    0.4567    9.3825 H   0  0  0  0  0  0  0  0  0  0  0  0
    7.3581   -0.7946    8.6626 H   0  0  0  0  0  0  0  0  0  0  0  0
    1.3083   -2.0507    9.1788 H   0  0  0  0  0  0  0  0  0  0  0  0
   -0.9891   -1.2769    9.5761 H   0  0  0  0  0  0  0  0  0  0  0  0
   -2.1419   -3.0088    2.1197 Ti  0  0  0  0  0  0  0  0  0  0  0  0
    0.2890   -1.6948    1.4324 Ti  0  0  0  0  0  0  0  0  0  0  0  0
    1.9031   -3.0677   -0.7293 Ti  0  0  0  0  0  0  0  0  0  0  0  0
   -2.5215   -0.2519    1.3037 Ti  0  0  0  0  0  0  0  0  0  0  0  0
    2.1420    0.4995    2.2044 Ti  0  0  0  0  0  0  0  0  0  0  0  0
   -0.6814    0.1896    3.6812 Ti  0  0  0  0  0  0  0  0  0  0  0  0
   -2.0368   -3.0777   -1.2005 Ti  0  0  0  0  0  0  0  0  0  0  0  0
   -0.6053   -0.7709   -2.0351 Ti  0  0  0  0  0  0  0  0  0  0  0  0
    1.9455   -1.5873   -3.4124 Ti  0  0  0  0  0  0  0  0  0  0  0  0
   -1.8782    1.7466   -1.2400 Ti  0  0  0  0  0  0  0  0  0  0  0  0
    2.4125    0.4542   -0.7742 Ti  0  0  0  0  0  0  0  0  0  0  0  0
    0.8177    1.8385   -2.9400 Ti  0  0  0  0  0  0  0  0  0  0  0  0
   -3.6784    1.2814    0.6007 C   0  0  0  0  0  0  0  0  0  0  0  0
    4.1282    0.4828    0.3873 C   0  0  0  0  0  0  0  0  0  0  0  0
    0.4555    2.2672    0.3497 C   0  0  0  0  0  0  0  0  0  0  0  0
   -3.6667    2.1188   -0.3139 C   0  0  0  0  0  0  0  0  0  0  0  0
    4.1160    0.6322    1.6214 C   0  0  0  0  0  0  0  0  0  0  0  0
   -0.6352    2.7410   -0.1189 C   0  0  0  0  0  0  0  0  0  0  0  0
    1.6301    1.7810    0.7342 C   0  0  0  0  0  0  0  0  0  0  0  0
   -3.0935   -1.9569    1.0379 O   0  0  0  0  0  0  0  0  0  0  0  0
   -0.4872   -2.6058    2.7012 O   0  0  0  0  0  0  0  0  0  0  0  0
    0.3141   -2.8889    0.1450 O   0  0  0  0  0  0  0  0  0  0  0  0
   -0.8008   -0.4359    0.9712 O   0  0  0  0  0  0  0  0  0  0  0  0
    1.9029   -1.1583    1.4694 O   0  0  0  0  0  0  0  0  0  0  0  0
   -2.3227   -0.1139    3.0248 O   0  0  0  0  0  0  0  0  0  0  0  0
    1.0138    0.4416    3.5688 O   0  0  0  0  0  0  0  0  0  0  0  0
   -1.7720   -4.5879   -1.6528 O   0  0  0  0  0  0  0  0  0  0  0  0
    0.1906   -1.1892   -3.5340 O   0  0  0  0  0  0  0  0  0  0  0  0
    2.8314   -2.1702   -1.9180 O   0  0  0  0  0  0  0  0  0  0  0  0
   -2.0546   -0.2244   -1.3375 O   0  0  0  0  0  0  0  0  0  0  0  0
    0.7685   -0.3906   -1.0637 O   0  0  0  0  0  0  0  0  0  0  0  0
   -0.9000    1.6493   -2.8186 O   0  0  0  0  0  0  0  0  0  0  0  0
    2.4153    1.3575   -2.2641 O   0  0  0  0  0  0  0  0  0  0  0  0
  1  2  1  0  0  0  0
  2  3  1  0  0  0  0
  2  4  1  0  0  0  0
  4  5  4  0  0  0  0
  5  6  2  0  0  0  0
  5  7  1  0  0  0  0
  7  8  4  0  0  0  0
  8  9  4  0  0  0  0
  9 10  4  0  0  0  0
 10 11  1  0  0  0  0
 11 12  1  0  0  0  0
 12 13  1  0  0  0  0
 13 14  1  0  0  0  0
 10 15  4  0  0  0  0
  7 16  4  0  0  0  0
 15 16  4  0  0  0  0
  1 17  1  0  0  0  0
  1 18  1  0  0  0  0
  1 19  1  0  0  0  0
  2 20  1  0  0  0  0
  3 21  1  0  0  0  0
  3 22  1  0  0  0  0
  3 23  1  0  0  0  0
  4 24  1  0  0  0  0
  8 25  1  0  0  0  0
  9 26  1  0  0  0  0
 11 27  1  0  0  0  0
 11 28  1  0  0  0  0
 12 29  1  0  0  0  0
 13 30  1  0  0  0  0
 14 31  1  0  0  0  0
 14 32  1  0  0  0  0
 14 33  1  0  0  0  0
 15 34  1  0  0  0  0
 16 35  1  0  0  0  0
 36 42  1  0  0  0  0
 42 43  1  0  0  0  0
 38 44  1  0  0  0  0
 39 48  1  0  0  0  0
 46 49  1  0  0  0  0
 45 51  1  0  0  0  0
 48 51  3  0  0  0  0
 40 52  1  0  0  0  0
 49 52  3  0  0  0  0
 45 53  1  0  0  0  0
 50 53  2  0  0  0  0
 40 54  1  0  0  0  0
 46 54  1  0  0  0  0
 50 54  2  0  0  0  0
 36 55  1  0  0  0  0
 39 55  1  0  0  0  0
 36 56  1  0  0  0  0
 37 56  1  0  0  0  0
 37 57  1  0  0  0  0
 38 57  1  0  0  0  0
 37 58  1  0  0  0  0
 39 58  1  0  0  0  0
 37 59  1  0  0  0  0
 40 59  1  0  0  0  0
 39 60  1  0  0  0  0
 41 60  1  0  0  0  0
 40 61  1  0  0  0  0
 41 61  1  0  0  0  0
 42 62  2  0  0  0  0
 43 63  1  0  0  0  0
 44 63  1  0  0  0  0
 38 64  1  0  0  0  0
 44 64  1  0  0  0  0
 43 65  1  0  0  0  0
 45 65  1  0  0  0  0
 43 66  1  0  0  0  0
 46 66  1  0  0  0  0
 45 67  1  0  0  0  0
 47 67  1  0  0  0  0
 46 68  1  0  0  0  0
 47 68  1  0  0  0  0
M  END
