 xtb: 6.7.1pre (5071a88)
          08312620303D

 68 78  0     0  0            999 V2000
   -5.1119    0.7404    5.7294 C   0  0  0  0  0  0  0  0  0  0  0  0
   -4.3029   -0.1296    4.7701 C   0  0  0  0  0  0  0  0  0  0  0  0
   -4.8663   -1.5463    4.7206 C   0  0  0  0  0  0  0  0  0  0  0  0
   -2.9028   -0.1590    5.1681 N   0  0  0  0  0  0  0  0  0  0  0  0
   -2.0256    0.8468    4.8161 C   0  0  0  0  0  0  0  0  0  0  0  0
   -2.3271    1.7831    4.0847 O   0  0  0  0  0  0  0  0  0  0  0  0
   -0.6409    0.7345    5.3513 C   0  0  0  0  0  0  0  0  0  0  0  0
   -0.3672    0.1447    6.5914 C   0  0  0  0  0  0  0  0  0  0  0  0
    0.9506    0.0646    7.0530 C   0  0  0  0  0  0  0  0  0  0  0  0
    2.0073    0.5843    6.2903 C   0  0  0  0  0  0  0  0  0  0  0  0
    3.4350    0.4870    6.7848 C   0  0  0  0  0  0  0  0  0  0  0  0
    4.1136   -0.7477    6.3472 N   0  0  0  0  0  0  0  0  0  0  0  0
    4.5877   -0.6005    4.9776 N   0  0  0  0  0  0  0  0  0  0  0  0
    6.0129   -0.2676    5.0124 C   0  0  0  0  0  0  0  0  0  0  0  0
    1.7232    1.1803    5.0539 C   0  0  0  0  0  0  0  0  0  0  0  0
    0.4081    1.2624    4.5908 C   0  0  0  0  0  0  0  0  0  0  0  0
   -6.1649    0.7755    5.4314 H   0  0  0  0  0  0  0  0  0  0  0  0
   -5.0585    0.3553    6.7538 H   0  0  0  0  0  0  0  0  0  0  0  0
   -4.7318    1.7675    5.7444 H   0  0  0  0  0  0  0  0  0  0  0  0
   -4.3641    0.3077    3.7663 H   0  0  0  0  0  0  0  0  0  0  0  0
   -4.2934   -2.1661    4.0221 H   0  0  0  0  0  0  0  0  0  0  0  0
   -5.9105   -1.5413    4.3915 H   0  0  0  0  0  0  0  0  0  0  0  0
   -4.8196   -2.0283    5.7035 H   0  0  0  0  0  0  0  0  0  0  0  0
   -2.5838   -0.9251    5.7435 H   0  0  0  0  0  0  0  0  0  0  0  0
   -1.1659   -0.2297    7.2242 H   0  0  0  0  0  0  0  0  0  0  0  0
    1.1485   -0.3944    8.0196 H   0  0  0  0  0  0  0  0  0  0  0  0
    3.4245    0.4902    7.8820 H   0  0  0  0  0  0  0  0  0  0  0  0
    3.9994    1.3852    6.5022 H   0  0  0  0  0  0  0  0  0  0  0  0
    3.4350   -1.5103    6.4261 H   0  0  0  0  0  0  0  0  0  0  0  0
    4.4841   -1.4766    4.4570 H   0  0  0  0  0  0  0  0  0  0  0  0
    6.3834   -0.1613    3.9880 H   0  0  0  0  0  0  0  0  0  0  0  0
    6.5966   -1.0547    5.5020 H   0  0  0  0  0  0  0  0  0  0  0  0
    6.1919    0.6829    5.5261 H   0  0  0  0  0  0  0  0  0  0  0  0
    2.5314    1.5792    4.4434 H   0  0  0  0  0  0  0  0  0  0  0  0
    0.2041    1.7341    3.6315 H   0  0  0  0  0  0  0  0  0  0  0  0
   -3.0000   -2.6000    1.2500 Ti  0  0  0  0  0  0  0  0  0  0  0  0
    0.0000   -2.6000    1.2500 Ti  0  0  0  0  0  0  0  0  0  0  0  0
    3.0000   -2.6000    1.2500 Ti  0  0  0  0  0  0  0  0  0  0  0  0
   -1.5000    0.0000    1.2500 Ti  0  0  0  0  0  0  0  0  0  0  0  0
    1.5000    0.0000    1.2500 Ti  0  0  0  0  0  0  0  0  0  0  0  0
    0.0000    2.6000    1.2500 Ti  0  0  0  0  0  0  0  0  0  0  0  0
   -3.0000   -2.6000   -1.2500 Ti  0  0  0  0  0  0  0  0  0  0  0  0
    0.0000   -2.6000   -1.2500 Ti  0  0  0  0  0  0  0  0  0  0  0  0
    3.0000   -2.6000   -1.2500 Ti  0  0  0  0  0  0  0  0  0  0  0  0
   -1.5000    0.0000   -1.2500 Ti  0  0  0  0  0  0  0  0  0  0  0  0
    1.5000    0.0000   -1.2500 Ti  0  0  0  0  0  0  0  0  0  0  0  0
    0.0000    2.6000   -1.2500 Ti  0  0  0  0  0  0  0  0  0  0  0  0
   -1.5000   -1.3000    0.0000 C   0  0  0  0  0  0  0  0  0  0  0  0
    1.5000   -1.3000    0.0000 C   0  0  0  0  0  0  0  0  0  0  0  0
    0.0000    1.3000    0.0000 C   0  0  0  0  0  0  0  0  0  0  0  0
   -3.0000    0.0000    0.0000 C   0  0  0  0  0  0  0  0  0  0  0  0
    3.0000    0.0000    0.0000 C   0  0  0  0  0  0  0  0  0  0  0  0
   -1.5000    2.6000    0.0000 C   0  0  0  0  0  0  0  0  0  0  0  0
    1.5000    2.6000    0.0000 C   0  0  0  0  0  0  0  0  0  0  0  0
   -3.0000   -2.6000    2.4500 O   0  0  0  0  0  0  0  0  0  0  0  0
    0.0000   -2.6000    2.4500 O   0  0  0  0  0  0  0  0  0  0  0  0
    3.0000   -2.6000    2.4500 O   0  0  0  0  0  0  0  0  0  0  0  0
   -1.5000    0.0000    2.4500 O   0  0  0  0  0  0  0  0  0  0  0  0
    1.5000    0.0000    2.4500 O   0  0  0  0  0  0  0  0  0  0  0  0
   -1.5000    2.6000    2.4500 O   0  0  0  0  0  0  0  0  0  0  0  0
    1.5000    2.6000    2.4500 O   0  0  0  0  0  0  0  0  0  0  0  0
   -3.0000   -2.6000   -2.4500 O   0  0  0  0  0  0  0  0  0  0  0  0
    0.0000   -2.6000   -2.4500 O   0  0  0  0  0  0  0  0  0  0  0  0
    3.0000   -2.6000   -2.4500 O   0  0  0  0  0  0  0  0  0  0  0  0
   -1.5000    0.0000   -2.4500 O   0  0  0  0  0  0  0  0  0  0  0  0
    1.5000    0.0000   -2.4500 O   0  0  0  0  0  0  0  0  0  0  0  0
   -1.5000    2.6000   -2.4500 O   0  0  0  0  0  0  0  0  0  0  0  0
    1.5000    2.6000   -2.4500 O   0  0  0  0  0  0  0  0  0  0  0  0
  1  2  1  0  0  0  0
  2  3  1  0  0  0  0
  2  4  1  0  0  0  0
  4  5  4  0  0  0  0
  5  6  2  0  0  0  0
  5  7  1  0  0  0  0
  7  8  4  0  0  0  0
  8  9  4  0  0  0  0
  9 10  4  0  0  0  0
 10 11  1  0  0  0  0
 11 12  1  0  0  0  0
 12 13  1  0  0  0  0
 13 14  1  0  0  0  0
 10 15  4  0  0  0  0
  7 16  4  0  0  0  0
 15 16  4  0  0  0  0
  1 17  1  0  0  0  0
  1 18  1  0  0  0  0
  1 19  1  0  0  0  0
  2 20  1  0  0  0  0
  3 21  1  0  0  0  0
  3 22  1  0  0  0  0
  3 23  1  0  0  0  0
  4 24  1  0  0  0  0
  8 25  1  0  0  0  0
  9 26  1  0  0  0  0
 11 27  1  0  0  0  0
 11 28  1  0  0  0  0
 12 29  1  0  0  0  0
 13 30  1  0  0  0  0
 14 31  1  0  0  0  0
 14 32  1  0  0  0  0
 14 33  1  0  0  0  0
 15 34  1  0  0  0  0
 16 35  1  0  0  0  0
 36 37  1  0  0  0  0
 37 38  1  0  0  0  0
 36 42  1  0  0  0  0
 37 43  1  0  0  0  0
 42 43  1  0  0  0  0
 38 44  1  0  0  0  0
 43 44  1  0  0  0  0
 39 48  1  0  0  0  0
 45 48  1  0  0  0  0
 40 49  1  0  0  0  0
 46 49  1  0  0  0  0
 41 50  1  0  0  0  0
 47 50  1  0  0  0  0
 39 51  1  0  0  0  0
 45 51  1  0  0  0  0
 48 51  1  0  0  0  0
 40 52  1  0  0  0  0
 46 52  1  0  0  0  0
 49 52  1  0  0  0  0
 41 53  1  0  0  0  0
 47 53  1  0  0  0  0
 50 53  1  0  0  0  0
 41 54  1  0  0  0  0
 47 54  1  0  0  0  0
 50 54  1  0  0  0  0
 36 55  2  0  0  0  0
 37 56  2  0  0  0  0
 38 57  2  0  0  0  0
 39 58  2  0  0  0  0
 40 59  2  0  0  0  0
 41 60  1  0  0  0  0
 53 60  1  0  0  0  0
 41 61  1  0  0  0  0
 54 61  1  0  0  0  0
 42 62  2  0  0  0  0
 43 63  2  0  0  0  0
 44 64  2  0  0  0  0
 45 65  2  0  0  0  0
 46 66  2  0  0  0  0
 47 67  1  0  0  0  0
 53 67  1  0  0  0  0
 47 68  1  0  0  0  0
 54 68  1  0  0  0  0
M  END
