 xtb: 6.7.1pre (5071a88)
          08312620313D

 88100  0     0  0            999 V2000
    1.0172    4.2504    4.4895 C   0  0  0  0  0  0  0  0  0  0  0  0
    0.9835    2.8683    4.8219 O   0  0  0  0  0  0  0  0  0  0  0  0
   -0.2459    2.2951    5.0079 C   0  0  0  0  0  0  0  0  0  0  0  0
   -1.4711    2.9162    4.7514 C   0  0  0  0  0  0  0  0  0  0  0  0
   -2.6864    2.2768    4.9816 C   0  0  0  0  0  0  0  0  0  0  0  0
   -3.8109    2.9395    4.7021 N   0  0  0  0  0  0  0  0  0  0  0  0
   -4.9616    2.2991    4.9333 C   0  0  0  0  0  0  0  0  0  0  0  0
   -5.0925    1.0652    5.4264 N   0  0  0  0  0  0  0  0  0  0  0  0
   -3.9587    0.4048    5.7209 C   0  0  0  0  0  0  0  0  0  0  0  0
   -4.0375   -0.8988    6.2850 N   0  0  0  0  0  0  0  0  0  0  0  0
   -5.1588   -1.7555    6.3617 C   0  0  0  0  0  0  0  0  0  0  0  0
   -6.1831   -1.7471    5.4035 C   0  0  0  0  0  0  0  0  0  0  0  0
   -7.2452   -2.6539    5.4721 C   0  0  0  0  0  0  0  0  0  0  0  0
   -7.2779   -3.5980    6.4897 C   0  0  0  0  0  0  0  0  0  0  0  0
   -8.3026   -4.4618    6.5382 F   0  0  0  0  0  0  0  0  0  0  0  0
   -6.2551   -3.6504    7.4306 C   0  0  0  0  0  0  0  0  0  0  0  0
   -6.2732   -4.8326    8.6831 Cl  0  0  0  0  0  0  0  0  0  0  0  0
   -5.1944   -2.7427    7.3605 C   0  0  0  0  0  0  0  0  0  0  0  0
   -2.6878    0.9730    5.4978 C   0  0  0  0  0  0  0  0  0  0  0  0
   -1.4538    0.3278    5.7450 C   0  0  0  0  0  0  0  0  0  0  0  0
   -0.2532    0.9809    5.4818 C   0  0  0  0  0  0  0  0  0  0  0  0
    0.9059    0.3160    5.7849 O   0  0  0  0  0  0  0  0  0  0  0  0
    1.5293   -0.1934    4.5993 C   0  0  0  0  0  0  0  0  0  0  0  0
    2.9921   -0.5130    4.9092 C   0  0  0  0  0  0  0  0  0  0  0  0
    3.7890    0.7599    5.2138 C   0  0  0  0  0  0  0  0  0  0  0  0
    5.2138    0.6165    5.5148 N   0  0  0  0  0  0  0  0  0  0  0  0
    5.5336   -0.0077    6.8054 C   0  0  0  0  0  0  0  0  0  0  0  0
    5.7889   -1.5224    6.7564 C   0  0  0  0  0  0  0  0  0  0  0  0
    6.7525   -1.8606    5.7528 O   0  0  0  0  0  0  0  0  0  0  0  0
    6.2984   -1.4264    4.4666 C   0  0  0  0  0  0  0  0  0  0  0  0
    6.0569    0.0919    4.4338 C   0  0  0  0  0  0  0  0  0  0  0  0
    0.5156    4.8551    5.2524 H   0  0  0  0  0  0  0  0  0  0  0  0
    0.5863    4.4253    3.4984 H   0  0  0  0  0  0  0  0  0  0  0  0
    2.0662    4.5599    4.4555 H   0  0  0  0  0  0  0  0  0  0  0  0
   -1.5152    3.9282    4.3599 H   0  0  0  0  0  0  0  0  0  0  0  0
   -5.8763    2.8339    4.7006 H   0  0  0  0  0  0  0  0  0  0  0  0
   -3.4927   -0.9124    7.1422 H   0  0  0  0  0  0  0  0  0  0  0  0
   -6.1642   -1.0341    4.5826 H   0  0  0  0  0  0  0  0  0  0  0  0
   -8.0390   -2.6304    4.7323 H   0  0  0  0  0  0  0  0  0  0  0  0
   -4.3955   -2.8069    8.0945 H   0  0  0  0  0  0  0  0  0  0  0  0
   -1.4200   -0.6884    6.1280 H   0  0  0  0  0  0  0  0  0  0  0  0
    1.0135   -1.1168    4.3086 H   0  0  0  0  0  0  0  0  0  0  0  0
    1.4744    0.5089    3.7580 H   0  0  0  0  0  0  0  0  0  0  0  0
    3.4171   -1.0298    4.0440 H   0  0  0  0  0  0  0  0  0  0  0  0
    3.0266   -1.1869    5.7703 H   0  0  0  0  0  0  0  0  0  0  0  0
    3.6950    1.4427    4.3590 H   0  0  0  0  0  0  0  0  0  0  0  0
    3.3175    1.2941    6.0486 H   0  0  0  0  0  0  0  0  0  0  0  0
    4.7727    0.2222    7.5605 H   0  0  0  0  0  0  0  0  0  0  0  0
    6.4580    0.4685    7.1575 H   0  0  0  0  0  0  0  0  0  0  0  0
    6.1897   -1.8558    7.7193 H   0  0  0  0  0  0  0  0  0  0  0  0
    4.8704   -2.0889    6.5755 H   0  0  0  0  0  0  0  0  0  0  0  0
    7.0754   -1.6872    3.7405 H   0  0  0  0  0  0  0  0  0  0  0  0
    5.4014   -1.9920    4.1965 H   0  0  0  0  0  0  0  0  0  0  0  0
    7.0344    0.5803    4.5402 H   0  0  0  0  0  0  0  0  0  0  0  0
    5.6774    0.3933    3.4504 H   0  0  0  0  0  0  0  0  0  0  0  0
   -3.0000   -2.6000    1.2500 Ti  0  0  0  0  0  0  0  0  0  0  0  0
    0.0000   -2.6000    1.2500 Ti  0  0  0  0  0  0  0  0  0  0  0  0
    3.0000   -2.6000    1.2500 Ti  0  0  0  0  0  0  0  0  0  0  0  0
   -1.5000    0.0000    1.2500 Ti  0  0  0  0  0  0  0  0  0  0  0  0
    1.5000    0.0000    1.2500 Ti  0  0  0  0  0  0  0  0  0  0  0  0
    0.0000    2.6000    1.2500 Ti  0  0  0  0  0  0  0  0  0  0  0  0
   -3.0000   -2.6000   -1.2500 Ti  0  0  0  0  0  0  0  0  0  0  0  0
    0.0000   -2.6000   -1.2500 Ti  0  0  0  0  0  0  0  0  0  0  0  0
    3.0000   -2.6000   -1.2500 Ti  0  0  0  0  0  0  0  0  0  0  0  0
   -1.5000    0.0000   -1.2500 Ti  0  0  0  0  0  0  0  0  0  0  0  0
    1.5000    0.0000   -1.2500 Ti  0  0  0  0  0  0  0  0  0  0  0  0
    0.0000    2.6000   -1.2500 Ti  0  0  0  0  0  0  0  0  0  0  0  0
   -1.5000   -1.3000    0.0000 C   0  0  0  0  0  0  0  0  0  0  0  0
    1.5000   -1.3000    0.0000 C   0  0  0  0  0  0  0  0  0  0  0  0
    0.0000    1.3000    0.0000 C   0  0  0  0  0  0  0  0  0  0  0  0
   -3.0000    0.0000    0.0000 C   0  0  0  0  0  0  0  0  0  0  0  0
    3.0000    0.0000    0.0000 C   0  0  0  0  0  0  0  0  0  0  0  0
   -1.5000    2.6000    0.0000 C   0  0  0  0  0  0  0  0  0  0  0  0
    1.5000    2.6000    0.0000 C   0  0  0  0  0  0  0  0  0  0  0  0
   -3.0000   -2.6000    2.4500 O   0  0  0  0  0  0  0  0  0  0  0  0
    0.0000   -2.6000    2.4500 O   0  0  0  0  0  0  0  0  0  0  0  0
    3.0000   -2.6000    2.4500 O   0  0  0  0  0  0  0  0  0  0  0  0
   -1.5000    0.0000    2.4500 O   0  0  0  0  0  0  0  0  0  0  0  0
    1.5000    0.0000    2.4500 O   0  0  0  0  0  0  0  0  0  0  0  0
   -1.5000    2.6000    2.4500 O   0  0  0  0  0  0  0  0  0  0  0  0
    1.5000    2.6000    2.4500 O   0  0  0  0  0  0  0  0  0  0  0  0
   -3.0000   -2.6000   -2.4500 O   0  0  0  0  0  0  0  0  0  0  0  0
    0.0000   -2.6000   -2.4500 O   0  0  0  0  0  0  0  0  0  0  0  0
    3.0000   -2.6000   -2.4500 O   0  0  0  0  0  0  0  0  0  0  0  0
   -1.5000    0.0000   -2.4500 O   0  0  0  0  0  0  0  0  0  0  0  0
    1.5000    0.0000   -2.4500 O   0  0  0  0  0  0  0  0  0  0  0  0
   -1.5000    2.6000   -2.4500 O   0  0  0  0  0  0  0  0  0  0  0  0
    1.5000    2.6000   -2.4500 O   0  0  0  0  0  0  0  0  0  0  0  0
  1  2  1  0  0  0  0
  2  3  1  0  0  0  0
  3  4  4  0  0  0  0
  4  5  4  0  0  0  0
  5  6  4  0  0  0  0
  6  7  4  0  0  0  0
  7  8  4  0  0  0  0
  8  9  4  0  0  0  0
  9 10  1  0  0  0  0
 10 11  1  0  0  0  0
 11 12  4  0  0  0  0
 12 13  4  0  0  0  0
 13 14  4  0  0  0  0
 14 15  1  0  0  0  0
 14 16  4  0  0  0  0
 16 17  1  0  0  0  0
 11 18  4  0  0  0  0
 16 18  4  0  0  0  0
  5 19  4  0  0  0  0
  9 19  4  0  0  0  0
 19 20  4  0  0  0  0
  3 21  4  0  0  0  0
 20 21  4  0  0  0  0
 21 22  1  0  0  0  0
 22 23  1  0  0  0  0
 23 24  1  0  0  0  0
 24 25  1  0  0  0  0
 25 26  1  0  0  0  0
 26 27  1  0  0  0  0
 27 28  1  0  0  0  0
 28 29  1  0  0  0  0
 29 30  1  0  0  0  0
 26 31  1  0  0  0  0
 30 31  1  0  0  0  0
  1 32  1  0  0  0  0
  1 33  1  0  0  0  0
  1 34  1  0  0  0  0
  4 35  1  0  0  0  0
  7 36  1  0  0  0  0
 10 37  1  0  0  0  0
 12 38  1  0  0  0  0
 13 39  1  0  0  0  0
 18 40  1  0  0  0  0
 20 41  1  0  0  0  0
 23 42  1  0  0  0  0
 23 43  1  0  0  0  0
 24 44  1  0  0  0  0
 24 45  1  0  0  0  0
 25 46  1  0  0  0  0
 25 47  1  0  0  0  0
 27 48  1  0  0  0  0
 27 49  1  0  0  0  0
 28 50  1  0  0  0  0
 28 51  1  0  0  0  0
 30 52  1  0  0  0  0
 30 53  1  0  0  0  0
 31 54  1  0  0  0  0
 31 55  1  0  0  0  0
 56 57  1  0  0  0  0
 56 62  1  0  0  0  0
 57 63  1  0  0  0  0
 62 63  1  0  0  0  0
 58 64  1  0  0  0  0
 63 64  1  0  0  0  0
 59 68  1  0  0  0  0
 65 68  1  0  0  0  0
 60 69  1  0  0  0  0
 66 69  1  0  0  0  0
 61 70  1  0  0  0  0
 67 70  1  0  0  0  0
 59 71  1  0  0  0  0
 65 71  1  0  0  0  0
 68 71  1  0  0  0  0
 60 72  1  0  0  0  0
 66 72  1  0  0  0  0
 69 72  1  0  0  0  0
 61 73  1  0  0  0  0
 67 73  1  0  0  0  0
 70 73  1  0  0  0  0
 61 74  1  0  0  0  0
 67 74  1  0  0  0  0
 70 74  1  0  0  0  0
 56 75  2  0  0  0  0
 57 76  2  0  0  0  0
 58 77  2  0  0  0  0
 59 78  2  0  0  0  0
 60 79  2  0  0  0  0
 61 80  1  0  0  0  0
 73 80  1  0  0  0  0
 61 81  1  0  0  0  0
 74 81  1  0  0  0  0
 62 82  2  0  0  0  0
 63 83  2  0  0  0  0
 64 84  2  0  0  0  0
 65 85  2  0  0  0  0
 66 86  2  0  0  0  0
 67 87  1  0  0  0  0
 73 87  1  0  0  0  0
 67 88  1  0  0  0  0
 74 88  1  0  0  0  0
M  END
