 xtb: 6.7.1pre (5071a88)
          08312621553D

 88 99  0     0  0            999 V2000
   -0.2437    5.4077    7.7789 C   0  0  0  0  0  0  0  0  0  0  0  0
   -0.6209    4.1627    8.3509 O   0  0  0  0  0  0  0  0  0  0  0  0
    0.3802    3.3259    8.7779 C   0  0  0  0  0  0  0  0  0  0  0  0
    1.7443    3.6349    8.7297 C   0  0  0  0  0  0  0  0  0  0  0  0
    2.7163    2.7499    9.1772 C   0  0  0  0  0  0  0  0  0  0  0  0
    3.9974    3.1160    9.0853 N   0  0  0  0  0  0  0  0  0  0  0  0
    4.9086    2.2354    9.5104 C   0  0  0  0  0  0  0  0  0  0  0  0
    4.6567    1.0327   10.0320 N   0  0  0  0  0  0  0  0  0  0  0  0
    3.3647    0.6753   10.1367 C   0  0  0  0  0  0  0  0  0  0  0  0
    3.0387   -0.5764   10.7304 N   0  0  0  0  0  0  0  0  0  0  0  0
    3.8996   -1.6698   10.9796 C   0  0  0  0  0  0  0  0  0  0  0  0
    3.5701   -2.5761   12.0024 C   0  0  0  0  0  0  0  0  0  0  0  0
    4.3561   -3.7061   12.2437 C   0  0  0  0  0  0  0  0  0  0  0  0
    5.4660   -3.9540   11.4454 C   0  0  0  0  0  0  0  0  0  0  0  0
    6.2058   -5.0452   11.6913 F   0  0  0  0  0  0  0  0  0  0  0  0
    5.7898   -3.0911   10.4036 C   0  0  0  0  0  0  0  0  0  0  0  0
    7.1476   -3.4090    9.3927 Cl  0  0  0  0  0  0  0  0  0  0  0  0
    5.0024   -1.9622   10.1638 C   0  0  0  0  0  0  0  0  0  0  0  0
    2.3186    1.5144    9.7002 C   0  0  0  0  0  0  0  0  0  0  0  0
    0.9382    1.1875    9.7424 C   0  0  0  0  0  0  0  0  0  0  0  0
   -0.0300    2.0862    9.2932 C   0  0  0  0  0  0  0  0  0  0  0  0
   -1.3786    1.8470    9.2853 O   0  0  0  0  0  0  0  0  0  0  0  0
   -1.9025    0.7089    9.9692 C   0  0  0  0  0  0  0  0  0  0  0  0
   -2.0100   -0.4784    9.0202 C   0  0  0  0  0  0  0  0  0  0  0  0
   -2.4595   -1.7823    9.6881 C   0  0  0  0  0  0  0  0  0  0  0  0
   -3.8070   -1.8554   10.2339 N   0  0  0  0  0  0  0  0  0  0  0  0
   -4.8989   -1.4969    9.3285 C   0  0  0  0  0  0  0  0  0  0  0  0
   -6.2520   -1.7245   10.0235 C   0  0  0  0  0  0  0  0  0  0  0  0
   -6.4306   -0.9694   11.2299 O   0  0  0  0  0  0  0  0  0  0  0  0
   -5.2149   -0.4241   11.7493 C   0  0  0  0  0  0  0  0  0  0  0  0
   -4.0066   -1.3674   11.6013 C   0  0  0  0  0  0  0  0  0  0  0  0
    0.3662    5.2620    6.8812 H   0  0  0  0  0  0  0  0  0  0  0  0
   -1.1582    5.9280    7.4781 H   0  0  0  0  0  0  0  0  0  0  0  0
    0.2715    6.0378    8.5112 H   0  0  0  0  0  0  0  0  0  0  0  0
    2.0909    4.5848    8.3342 H   0  0  0  0  0  0  0  0  0  0  0  0
    5.9503    2.5264    9.4268 H   0  0  0  0  0  0  0  0  0  0  0  0
    2.4165   -0.4042   11.5142 H   0  0  0  0  0  0  0  0  0  0  0  0
    2.6975   -2.4076   12.6290 H   0  0  0  0  0  0  0  0  0  0  0  0
    4.1064   -4.3962   13.0437 H   0  0  0  0  0  0  0  0  0  0  0  0
    5.2531   -1.3128    9.3293 H   0  0  0  0  0  0  0  0  0  0  0  0
    0.6519    0.2060   10.1032 H   0  0  0  0  0  0  0  0  0  0  0  0
   -2.9050    0.9989   10.2974 H   0  0  0  0  0  0  0  0  0  0  0  0
   -1.3404    0.4789   10.8811 H   0  0  0  0  0  0  0  0  0  0  0  0
   -1.0345   -0.6569    8.5508 H   0  0  0  0  0  0  0  0  0  0  0  0
   -2.6710   -0.2197    8.1840 H   0  0  0  0  0  0  0  0  0  0  0  0
   -1.7323   -2.0627   10.4613 H   0  0  0  0  0  0  0  0  0  0  0  0
   -2.3766   -2.5741    8.9317 H   0  0  0  0  0  0  0  0  0  0  0  0
   -4.8254   -0.4447    9.0297 H   0  0  0  0  0  0  0  0  0  0  0  0
   -4.8550   -2.1112    8.4223 H   0  0  0  0  0  0  0  0  0  0  0  0
   -6.3757   -2.7839   10.2776 H   0  0  0  0  0  0  0  0  0  0  0  0
   -7.0699   -1.4580    9.3461 H   0  0  0  0  0  0  0  0  0  0  0  0
   -5.0285    0.5306   11.2446 H   0  0  0  0  0  0  0  0  0  0  0  0
   -5.3817   -0.1985   12.8076 H   0  0  0  0  0  0  0  0  0  0  0  0
   -3.1150   -0.8703   11.9983 H   0  0  0  0  0  0  0  0  0  0  0  0
   -4.1812   -2.2487   12.2302 H   0  0  0  0  0  0  0  0  0  0  0  0
   -2.1419   -3.0088    2.1197 Ti  0  0  0  0  0  0  0  0  0  0  0  0
    0.2890   -1.6948    1.4324 Ti  0  0  0  0  0  0  0  0  0  0  0  0
    1.9031   -3.0677   -0.7293 Ti  0  0  0  0  0  0  0  0  0  0  0  0
   -2.5215   -0.2519    1.3037 Ti  0  0  0  0  0  0  0  0  0  0  0  0
    2.1420    0.4995    2.2044 Ti  0  0  0  0  0  0  0  0  0  0  0  0
   -0.6814    0.1896    3.6812 Ti  0  0  0  0  0  0  0  0  0  0  0  0
   -2.0368   -3.0777   -1.2005 Ti  0  0  0  0  0  0  0  0  0  0  0  0
   -0.6053   -0.7709   -2.0351 Ti  0  0  0  0  0  0  0  0  0  0  0  0
    1.9455   -1.5873   -3.4124 Ti  0  0  0  0  0  0  0  0  0  0  0  0
   -1.8782    1.7466   -1.2400 Ti  0  0  0  0  0  0  0  0  0  0  0  0
    2.4125    0.4542   -0.7742 Ti  0  0  0  0  0  0  0  0  0  0  0  0
    0.8177    1.8385   -2.9400 Ti  0  0  0  0  0  0  0  0  0  0  0  0
   -3.6784    1.2814    0.6007 C   0  0  0  0  0  0  0  0  0  0  0  0
    4.1282    0.4828    0.3873 C   0  0  0  0  0  0  0  0  0  0  0  0
    0.4555    2.2672    0.3497 C   0  0  0  0  0  0  0  0  0  0  0  0
   -3.6667    2.1188   -0.3139 C   0  0  0  0  0  0  0  0  0  0  0  0
    4.1160    0.6322    1.6214 C   0  0  0  0  0  0  0  0  0  0  0  0
   -0.6352    2.7410   -0.1189 C   0  0  0  0  0  0  0  0  0  0  0  0
    1.6301    1.7810    0.7342 C   0  0  0  0  0  0  0  0  0  0  0  0
   -3.0935   -1.9569    1.0379 O   0  0  0  0  0  0  0  0  0  0  0  0
   -0.4872   -2.6058    2.7012 O   0  0  0  0  0  0  0  0  0  0  0  0
    0.3141   -2.8889    0.1450 O   0  0  0  0  0  0  0  0  0  0  0  0
   -0.8008   -0.4359    0.9712 O   0  0  0  0  0  0  0  0  0  0  0  0
    1.9029   -1.1583    1.4694 O   0  0  0  0  0  0  0  0  0  0  0  0
   -2.3227   -0.1139    3.0248 O   0  0  0  0  0  0  0  0  0  0  0  0
    1.0138    0.4416    3.5688 O   0  0  0  0  0  0  0  0  0  0  0  0
   -1.7720   -4.5879   -1.6528 O   0  0  0  0  0  0  0  0  0  0  0  0
    0.1906   -1.1892   -3.5340 O   0  0  0  0  0  0  0  0  0  0  0  0
    2.8314   -2.1702   -1.9180 O   0  0  0  0  0  0  0  0  0  0  0  0
   -2.0546   -0.2244   -1.3375 O   0  0  0  0  0  0  0  0  0  0  0  0
    0.7685   -0.3906   -1.0637 O   0  0  0  0  0  0  0  0  0  0  0  0
   -0.9000    1.6493   -2.8186 O   0  0  0  0  0  0  0  0  0  0  0  0
    2.4153    1.3575   -2.2641 O   0  0  0  0  0  0  0  0  0  0  0  0
  1  2  1  0  0  0  0
  2  3  1  0  0  0  0
  3  4  4  0  0  0  0
  4  5  4  0  0  0  0
  5  6  4  0  0  0  0
  6  7  4  0  0  0  0
  7  8  4  0  0  0  0
  8  9  4  0  0  0  0
  9 10  1  0  0  0  0
 10 11  1  0  0  0  0
 11 12  4  0  0  0  0
 12 13  4  0  0  0  0
 13 14  4  0  0  0  0
 14 15  1  0  0  0  0
 14 16  4  0  0  0  0
 16 17  1  0  0  0  0
 11 18  4  0  0  0  0
 16 18  4  0  0  0  0
  5 19  4  0  0  0  0
  9 19  4  0  0  0  0
 19 20  4  0  0  0  0
  3 21  4  0  0  0  0
 20 21  4  0  0  0  0
 21 22  1  0  0  0  0
 22 23  1  0  0  0  0
 23 24  1  0  0  0  0
 24 25  1  0  0  0  0
 25 26  1  0  0  0  0
 26 27  1  0  0  0  0
 27 28  1  0  0  0  0
 28 29  1  0  0  0  0
 29 30  1  0  0  0  0
 26 31  1  0  0  0  0
 30 31  1  0  0  0  0
  1 32  1  0  0  0  0
  1 33  1  0  0  0  0
  1 34  1  0  0  0  0
  4 35  1  0  0  0  0
  7 36  1  0  0  0  0
 10 37  1  0  0  0  0
 12 38  1  0  0  0  0
 13 39  1  0  0  0  0
 18 40  1  0  0  0  0
 20 41  1  0  0  0  0
 23 42  1  0  0  0  0
 23 43  1  0  0  0  0
 24 44  1  0  0  0  0
 24 45  1  0  0  0  0
 25 46  1  0  0  0  0
 25 47  1  0  0  0  0
 27 48  1  0  0  0  0
 27 49  1  0  0  0  0
 28 50  1  0  0  0  0
 28 51  1  0  0  0  0
 30 52  1  0  0  0  0
 30 53  1  0  0  0  0
 31 54  1  0  0  0  0
 31 55  1  0  0  0  0
 56 62  1  0  0  0  0
 62 63  1  0  0  0  0
 58 64  1  0  0  0  0
 59 68  1  0  0  0  0
 66 69  1  0  0  0  0
 65 71  1  0  0  0  0
 68 71  3  0  0  0  0
 60 72  1  0  0  0  0
 69 72  3  0  0  0  0
 65 73  1  0  0  0  0
 70 73  2  0  0  0  0
 60 74  1  0  0  0  0
 66 74  1  0  0  0  0
 70 74  2  0  0  0  0
 56 75  1  0  0  0  0
 59 75  1  0  0  0  0
 56 76  1  0  0  0  0
 57 76  1  0  0  0  0
 57 77  1  0  0  0  0
 58 77  1  0  0  0  0
 57 78  1  0  0  0  0
 59 78  1  0  0  0  0
 57 79  1  0  0  0  0
 60 79  1  0  0  0  0
 59 80  1  0  0  0  0
 61 80  1  0  0  0  0
 60 81  1  0  0  0  0
 61 81  1  0  0  0  0
 62 82  2  0  0  0  0
 63 83  1  0  0  0  0
 64 83  1  0  0  0  0
 58 84  1  0  0  0  0
 64 84  1  0  0  0  0
 63 85  1  0  0  0  0
 65 85  1  0  0  0  0
 63 86  1  0  0  0  0
 66 86  1  0  0  0  0
 65 87  1  0  0  0  0
 67 87  1  0  0  0  0
 66 88  1  0  0  0  0
 67 88  1  0  0  0  0
M  END
