 xtb: 6.7.1pre (5071a88)
          09012617043D

 33 40  0     0  0            999 V2000
   -2.0426   -2.7051    3.3540 Ti  0  0  0  0  0  0  0  0  0  0  0  0
    0.4055   -1.7588    2.2401 Ti  0  0  0  0  0  0  0  0  0  0  0  0
    1.6459   -3.3089    0.0204 Ti  0  0  0  0  0  0  0  0  0  0  0  0
   -2.3089   -0.0967    2.1261 Ti  0  0  0  0  0  0  0  0  0  0  0  0
    2.4450    0.3571    2.8796 Ti  0  0  0  0  0  0  0  0  0  0  0  0
   -0.3014    0.4497    4.3727 Ti  0  0  0  0  0  0  0  0  0  0  0  0
   -2.1166   -3.0511   -0.0163 Ti  0  0  0  0  0  0  0  0  0  0  0  0
   -0.4147   -0.8232   -1.2099 Ti  0  0  0  0  0  0  0  0  0  0  0  0
    1.7911   -1.7479   -2.7300 Ti  0  0  0  0  0  0  0  0  0  0  0  0
   -1.7040    1.6917   -0.4975 Ti  0  0  0  0  0  0  0  0  0  0  0  0
    2.5530    0.3617   -0.1452 Ti  0  0  0  0  0  0  0  0  0  0  0  0
    0.9246    1.8549   -2.1902 Ti  0  0  0  0  0  0  0  0  0  0  0  0
   -3.4952    1.3563    1.3242 C   0  0  0  0  0  0  0  0  0  0  0  0
    4.3154    0.2029    0.9255 C   0  0  0  0  0  0  0  0  0  0  0  0
    0.6930    2.1367    1.1407 C   0  0  0  0  0  0  0  0  0  0  0  0
   -3.5155    2.1355    0.3584 C   0  0  0  0  0  0  0  0  0  0  0  0
    4.3788    0.3619    2.1569 C   0  0  0  0  0  0  0  0  0  0  0  0
   -0.4497    2.5664    0.7709 C   0  0  0  0  0  0  0  0  0  0  0  0
    1.9195    1.6950    1.4373 C   0  0  0  0  0  0  0  0  0  0  0  0
   -3.0278   -1.7773    2.1748 O   0  0  0  0  0  0  0  0  0  0  0  0
   -0.3207   -2.4132    3.7131 O   0  0  0  0  0  0  0  0  0  0  0  0
    0.3059   -3.1716    1.2362 O   0  0  0  0  0  0  0  0  0  0  0  0
   -0.6601   -0.5164    1.6947 O   0  0  0  0  0  0  0  0  0  0  0  0
    2.0362   -1.2742    2.2112 O   0  0  0  0  0  0  0  0  0  0  0  0
   -1.9919    0.2178    3.8198 O   0  0  0  0  0  0  0  0  0  0  0  0
    1.4210    0.4989    4.3065 O   0  0  0  0  0  0  0  0  0  0  0  0
   -0.8079   -2.5243   -1.0855 O   0  0  0  0  0  0  0  0  0  0  0  0
    0.2364   -0.8008   -2.8269 O   0  0  0  0  0  0  0  0  0  0  0  0
    2.5008   -2.6338   -1.3465 O   0  0  0  0  0  0  0  0  0  0  0  0
   -1.8905   -0.1510   -0.6051 O   0  0  0  0  0  0  0  0  0  0  0  0
    0.9756   -0.4578   -0.2653 O   0  0  0  0  0  0  0  0  0  0  0  0
   -0.8110    1.9107   -1.9934 O   0  0  0  0  0  0  0  0  0  0  0  0
    2.5218    1.2472   -1.6394 O   0  0  0  0  0  0  0  0  0  0  0  0
  1  7  1  0  0  0  0
  4 13  1  0  0  0  0
 11 14  1  0  0  0  0
 10 16  1  0  0  0  0
 13 16  3  0  0  0  0
  5 17  1  0  0  0  0
 14 17  3  0  0  0  0
 10 18  1  0  0  0  0
 15 18  2  0  0  0  0
  5 19  1  0  0  0  0
 11 19  1  0  0  0  0
 15 19  2  0  0  0  0
  1 20  1  0  0  0  0
  4 20  1  0  0  0  0
  1 21  1  0  0  0  0
  2 21  1  0  0  0  0
  2 22  1  0  0  0  0
  3 22  1  0  0  0  0
  2 23  1  0  0  0  0
  4 23  1  0  0  0  0
  2 24  1  0  0  0  0
  5 24  1  0  0  0  0
  4 25  1  0  0  0  0
  6 25  1  0  0  0  0
  5 26  1  0  0  0  0
  6 26  1  0  0  0  0
  7 27  1  0  0  0  0
  8 27  1  0  0  0  0
  8 28  1  0  0  0  0
  9 28  1  0  0  0  0
  3 29  1  0  0  0  0
  9 29  1  0  0  0  0
  8 30  1  0  0  0  0
 10 30  1  0  0  0  0
  8 31  1  0  0  0  0
 11 31  1  0  0  0  0
 10 32  1  0  0  0  0
 12 32  1  0  0  0  0
 11 33  1  0  0  0  0
 12 33  1  0  0  0  0
M  END
