 xtb: 6.7.1pre (5071a88)
          09022620123D

 33 40  0     0  0            999 V2000
   -2.5730   -2.4295    3.3710 Ti  0  0  0  0  0  0  0  0  0  0  0  0
    0.1571   -1.1369    3.4208 Ti  0  0  0  0  0  0  0  0  0  0  0  0
    0.6454   -1.1260    0.6136 Ti  0  0  0  0  0  0  0  0  0  0  0  0
   -1.7030    0.0919    5.5685 Ti  0  0  0  0  0  0  0  0  0  0  0  0
    2.8945   -0.5742    4.5582 Ti  0  0  0  0  0  0  0  0  0  0  0  0
    0.8335   -1.2171    6.2882 Ti  0  0  0  0  0  0  0  0  0  0  0  0
   -3.5232    0.8085    2.6153 Ti  0  0  0  0  0  0  0  0  0  0  0  0
   -0.5828    1.7425    1.9727 Ti  0  0  0  0  0  0  0  0  0  0  0  0
    0.2871    2.0056   -0.8936 Ti  0  0  0  0  0  0  0  0  0  0  0  0
   -0.5799    3.4940    4.2889 Ti  0  0  0  0  0  0  0  0  0  0  0  0
    2.3483    1.3108    1.5925 Ti  0  0  0  0  0  0  0  0  0  0  0  0
    1.3785    4.1787    1.8951 Ti  0  0  0  0  0  0  0  0  0  0  0  0
   -2.3509    2.0195    5.9708 C   0  0  0  0  0  0  0  0  0  0  0  0
    4.0949    0.9283    2.5958 C   0  0  0  0  0  0  0  0  0  0  0  0
    1.3250    1.7361    5.6665 C   0  0  0  0  0  0  0  0  0  0  0  0
   -2.0510    3.1932    5.7295 C   0  0  0  0  0  0  0  0  0  0  0  0
    4.4480    0.3851    3.6506 C   0  0  0  0  0  0  0  0  0  0  0  0
    0.8903    2.9069    5.4682 C   0  0  0  0  0  0  0  0  0  0  0  0
    1.9465    0.5837    5.9727 C   0  0  0  0  0  0  0  0  0  0  0  0
   -3.0394   -0.7833    5.0379 O   0  0  0  0  0  0  0  0  0  0  0  0
   -0.1094   -2.2032    4.7229 O   0  0  0  0  0  0  0  0  0  0  0  0
   -1.3049    0.3662    1.3404 O   0  0  0  0  0  0  0  0  0  0  0  0
   -0.7651    0.1718    4.0843 O   0  0  0  0  0  0  0  0  0  0  0  0
    1.8622   -0.9546    3.1427 O   0  0  0  0  0  0  0  0  0  0  0  0
   -0.6680   -0.5944    6.8552 O   0  0  0  0  0  0  0  0  0  0  0  0
    2.4230   -1.8153    5.7314 O   0  0  0  0  0  0  0  0  0  0  0  0
   -0.3132   -1.9201    1.9312 O   0  0  0  0  0  0  0  0  0  0  0  0
   -0.5247    2.7470    0.5461 O   0  0  0  0  0  0  0  0  0  0  0  0
    1.8062    0.1413    0.3245 O   0  0  0  0  0  0  0  0  0  0  0  0
   -1.6040    2.5671    3.0614 O   0  0  0  0  0  0  0  0  0  0  0  0
    1.0053    1.4970    2.6483 O   0  0  0  0  0  0  0  0  0  0  0  0
    0.2166    4.5926    3.0901 O   0  0  0  0  0  0  0  0  0  0  0  0
    2.3437    2.9084    0.9109 O   0  0  0  0  0  0  0  0  0  0  0  0
  1  7  1  0  0  0  0
  3  9  1  0  0  0  0
  4 13  1  0  0  0  0
 11 14  1  0  0  0  0
 10 16  1  0  0  0  0
 13 16  3  0  0  0  0
  5 17  1  0  0  0  0
 14 17  3  0  0  0  0
 10 18  1  0  0  0  0
 15 18  2  0  0  0  0
  5 19  1  0  0  0  0
  6 19  1  0  0  0  0
 15 19  2  0  0  0  0
  1 20  1  0  0  0  0
  4 20  1  0  0  0  0
  2 21  1  0  0  0  0
  6 21  1  0  0  0  0
  8 22  1  0  0  0  0
  2 23  1  0  0  0  0
  4 23  1  0  0  0  0
  2 24  1  0  0  0  0
  5 24  1  0  0  0  0
  4 25  1  0  0  0  0
  6 25  1  0  0  0  0
  5 26  1  0  0  0  0
  6 26  1  0  0  0  0
  2 27  1  0  0  0  0
  3 27  1  0  0  0  0
  8 28  1  0  0  0  0
  9 28  1  0  0  0  0
  3 29  1  0  0  0  0
 11 29  1  0  0  0  0
  8 30  1  0  0  0  0
 10 30  1  0  0  0  0
  8 31  1  0  0  0  0
 11 31  1  0  0  0  0
 10 32  1  0  0  0  0
 12 32  1  0  0  0  0
 11 33  1  0  0  0  0
 12 33  1  0  0  0  0
M  END
