 xtb: 6.7.1pre (5071a88)
          08312621183D

 88 99  0     0  0            999 V2000
    1.0172    4.2504    8.2203 C   0  0  0  0  0  0  0  0  0  0  0  0
    0.9835    2.8683    8.5527 O   0  0  0  0  0  0  0  0  0  0  0  0
   -0.2459    2.2951    8.7387 C   0  0  0  0  0  0  0  0  0  0  0  0
   -1.4711    2.9162    8.4822 C   0  0  0  0  0  0  0  0  0  0  0  0
   -2.6864    2.2768    8.7124 C   0  0  0  0  0  0  0  0  0  0  0  0
   -3.8109    2.9395    8.4329 N   0  0  0  0  0  0  0  0  0  0  0  0
   -4.9616    2.2991    8.6641 C   0  0  0  0  0  0  0  0  0  0  0  0
   -5.0925    1.0652    9.1572 N   0  0  0  0  0  0  0  0  0  0  0  0
   -3.9587    0.4048    9.4517 C   0  0  0  0  0  0  0  0  0  0  0  0
   -4.0375   -0.8988   10.0158 N   0  0  0  0  0  0  0  0  0  0  0  0
   -5.1588   -1.7555   10.0925 C   0  0  0  0  0  0  0  0  0  0  0  0
   -6.1831   -1.7471    9.1343 C   0  0  0  0  0  0  0  0  0  0  0  0
   -7.2452   -2.6539    9.2030 C   0  0  0  0  0  0  0  0  0  0  0  0
   -7.2779   -3.5980   10.2206 C   0  0  0  0  0  0  0  0  0  0  0  0
   -8.3026   -4.4618   10.2690 F   0  0  0  0  0  0  0  0  0  0  0  0
   -6.2551   -3.6504   11.1614 C   0  0  0  0  0  0  0  0  0  0  0  0
   -6.2732   -4.8326   12.4139 Cl  0  0  0  0  0  0  0  0  0  0  0  0
   -5.1944   -2.7427   11.0913 C   0  0  0  0  0  0  0  0  0  0  0  0
   -2.6878    0.9730    9.2286 C   0  0  0  0  0  0  0  0  0  0  0  0
   -1.4538    0.3278    9.4759 C   0  0  0  0  0  0  0  0  0  0  0  0
   -0.2532    0.9809    9.2126 C   0  0  0  0  0  0  0  0  0  0  0  0
    0.9059    0.3160    9.5157 O   0  0  0  0  0  0  0  0  0  0  0  0
    1.5293   -0.1934    8.3301 C   0  0  0  0  0  0  0  0  0  0  0  0
    2.9921   -0.5130    8.6400 C   0  0  0  0  0  0  0  0  0  0  0  0
    3.7890    0.7599    8.9447 C   0  0  0  0  0  0  0  0  0  0  0  0
    5.2138    0.6165    9.2456 N   0  0  0  0  0  0  0  0  0  0  0  0
    5.5336   -0.0077   10.5363 C   0  0  0  0  0  0  0  0  0  0  0  0
    5.7889   -1.5224   10.4872 C   0  0  0  0  0  0  0  0  0  0  0  0
    6.7525   -1.8606    9.4836 O   0  0  0  0  0  0  0  0  0  0  0  0
    6.2984   -1.4264    8.1974 C   0  0  0  0  0  0  0  0  0  0  0  0
    6.0569    0.0919    8.1646 C   0  0  0  0  0  0  0  0  0  0  0  0
    0.5156    4.8551    8.9832 H   0  0  0  0  0  0  0  0  0  0  0  0
    0.5863    4.4253    7.2292 H   0  0  0  0  0  0  0  0  0  0  0  0
    2.0662    4.5599    8.1863 H   0  0  0  0  0  0  0  0  0  0  0  0
   -1.5152    3.9282    8.0908 H   0  0  0  0  0  0  0  0  0  0  0  0
   -5.8763    2.8339    8.4314 H   0  0  0  0  0  0  0  0  0  0  0  0
   -3.4927   -0.9124   10.8730 H   0  0  0  0  0  0  0  0  0  0  0  0
   -6.1642   -1.0341    8.3135 H   0  0  0  0  0  0  0  0  0  0  0  0
   -8.0390   -2.6304    8.4631 H   0  0  0  0  0  0  0  0  0  0  0  0
   -4.3955   -2.8069   11.8253 H   0  0  0  0  0  0  0  0  0  0  0  0
   -1.4200   -0.6884    9.8588 H   0  0  0  0  0  0  0  0  0  0  0  0
    1.0135   -1.1168    8.0395 H   0  0  0  0  0  0  0  0  0  0  0  0
    1.4744    0.5089    7.4888 H   0  0  0  0  0  0  0  0  0  0  0  0
    3.4171   -1.0298    7.7748 H   0  0  0  0  0  0  0  0  0  0  0  0
    3.0266   -1.1869    9.5011 H   0  0  0  0  0  0  0  0  0  0  0  0
    3.6950    1.4427    8.0898 H   0  0  0  0  0  0  0  0  0  0  0  0
    3.3175    1.2941    9.7794 H   0  0  0  0  0  0  0  0  0  0  0  0
    4.7727    0.2222   11.2913 H   0  0  0  0  0  0  0  0  0  0  0  0
    6.4580    0.4685   10.8883 H   0  0  0  0  0  0  0  0  0  0  0  0
    6.1897   -1.8558   11.4502 H   0  0  0  0  0  0  0  0  0  0  0  0
    4.8704   -2.0889   10.3063 H   0  0  0  0  0  0  0  0  0  0  0  0
    7.0754   -1.6872    7.4713 H   0  0  0  0  0  0  0  0  0  0  0  0
    5.4014   -1.9920    7.9273 H   0  0  0  0  0  0  0  0  0  0  0  0
    7.0344    0.5803    8.2710 H   0  0  0  0  0  0  0  0  0  0  0  0
    5.6774    0.3933    7.1812 H   0  0  0  0  0  0  0  0  0  0  0  0
   -2.1419   -3.0088    2.1197 Ti  0  0  0  0  0  0  0  0  0  0  0  0
    0.2890   -1.6948    1.4324 Ti  0  0  0  0  0  0  0  0  0  0  0  0
    1.9031   -3.0677   -0.7293 Ti  0  0  0  0  0  0  0  0  0  0  0  0
   -2.5215   -0.2519    1.3037 Ti  0  0  0  0  0  0  0  0  0  0  0  0
    2.1420    0.4995    2.2044 Ti  0  0  0  0  0  0  0  0  0  0  0  0
   -0.6814    0.1896    3.6812 Ti  0  0  0  0  0  0  0  0  0  0  0  0
   -2.0368   -3.0777   -1.2005 Ti  0  0  0  0  0  0  0  0  0  0  0  0
   -0.6053   -0.7709   -2.0351 Ti  0  0  0  0  0  0  0  0  0  0  0  0
    1.9455   -1.5873   -3.4124 Ti  0  0  0  0  0  0  0  0  0  0  0  0
   -1.8782    1.7466   -1.2400 Ti  0  0  0  0  0  0  0  0  0  0  0  0
    2.4125    0.4542   -0.7742 Ti  0  0  0  0  0  0  0  0  0  0  0  0
    0.8177    1.8385   -2.9400 Ti  0  0  0  0  0  0  0  0  0  0  0  0
   -3.6784    1.2814    0.6007 C   0  0  0  0  0  0  0  0  0  0  0  0
    4.1282    0.4828    0.3873 C   0  0  0  0  0  0  0  0  0  0  0  0
    0.4555    2.2672    0.3497 C   0  0  0  0  0  0  0  0  0  0  0  0
   -3.6667    2.1188   -0.3139 C   0  0  0  0  0  0  0  0  0  0  0  0
    4.1160    0.6322    1.6214 C   0  0  0  0  0  0  0  0  0  0  0  0
   -0.6352    2.7410   -0.1189 C   0  0  0  0  0  0  0  0  0  0  0  0
    1.6301    1.7810    0.7342 C   0  0  0  0  0  0  0  0  0  0  0  0
   -3.0935   -1.9569    1.0379 O   0  0  0  0  0  0  0  0  0  0  0  0
   -0.4872   -2.6058    2.7012 O   0  0  0  0  0  0  0  0  0  0  0  0
    0.3141   -2.8889    0.1450 O   0  0  0  0  0  0  0  0  0  0  0  0
   -0.8008   -0.4359    0.9712 O   0  0  0  0  0  0  0  0  0  0  0  0
    1.9029   -1.1583    1.4694 O   0  0  0  0  0  0  0  0  0  0  0  0
   -2.3227   -0.1139    3.0248 O   0  0  0  0  0  0  0  0  0  0  0  0
    1.0138    0.4416    3.5688 O   0  0  0  0  0  0  0  0  0  0  0  0
   -1.7720   -4.5879   -1.6528 O   0  0  0  0  0  0  0  0  0  0  0  0
    0.1906   -1.1892   -3.5340 O   0  0  0  0  0  0  0  0  0  0  0  0
    2.8314   -2.1702   -1.9180 O   0  0  0  0  0  0  0  0  0  0  0  0
   -2.0546   -0.2244   -1.3375 O   0  0  0  0  0  0  0  0  0  0  0  0
    0.7685   -0.3906   -1.0637 O   0  0  0  0  0  0  0  0  0  0  0  0
   -0.9000    1.6493   -2.8186 O   0  0  0  0  0  0  0  0  0  0  0  0
    2.4153    1.3575   -2.2641 O   0  0  0  0  0  0  0  0  0  0  0  0
  1  2  1  0  0  0  0
  2  3  1  0  0  0  0
  3  4  4  0  0  0  0
  4  5  4  0  0  0  0
  5  6  4  0  0  0  0
  6  7  4  0  0  0  0
  7  8  4  0  0  0  0
  8  9  4  0  0  0  0
  9 10  1  0  0  0  0
 10 11  1  0  0  0  0
 11 12  4  0  0  0  0
 12 13  4  0  0  0  0
 13 14  4  0  0  0  0
 14 15  1  0  0  0  0
 14 16  4  0  0  0  0
 16 17  1  0  0  0  0
 11 18  4  0  0  0  0
 16 18  4  0  0  0  0
  5 19  4  0  0  0  0
  9 19  4  0  0  0  0
 19 20  4  0  0  0  0
  3 21  4  0  0  0  0
 20 21  4  0  0  0  0
 21 22  1  0  0  0  0
 22 23  1  0  0  0  0
 23 24  1  0  0  0  0
 24 25  1  0  0  0  0
 25 26  1  0  0  0  0
 26 27  1  0  0  0  0
 27 28  1  0  0  0  0
 28 29  1  0  0  0  0
 29 30  1  0  0  0  0
 26 31  1  0  0  0  0
 30 31  1  0  0  0  0
  1 32  1  0  0  0  0
  1 33  1  0  0  0  0
  1 34  1  0  0  0  0
  4 35  1  0  0  0  0
  7 36  1  0  0  0  0
 10 37  1  0  0  0  0
 12 38  1  0  0  0  0
 13 39  1  0  0  0  0
 18 40  1  0  0  0  0
 20 41  1  0  0  0  0
 23 42  1  0  0  0  0
 23 43  1  0  0  0  0
 24 44  1  0  0  0  0
 24 45  1  0  0  0  0
 25 46  1  0  0  0  0
 25 47  1  0  0  0  0
 27 48  1  0  0  0  0
 27 49  1  0  0  0  0
 28 50  1  0  0  0  0
 28 51  1  0  0  0  0
 30 52  1  0  0  0  0
 30 53  1  0  0  0  0
 31 54  1  0  0  0  0
 31 55  1  0  0  0  0
 56 62  1  0  0  0  0
 62 63  1  0  0  0  0
 58 64  1  0  0  0  0
 59 68  1  0  0  0  0
 66 69  1  0  0  0  0
 65 71  1  0  0  0  0
 68 71  3  0  0  0  0
 60 72  1  0  0  0  0
 69 72  3  0  0  0  0
 65 73  1  0  0  0  0
 70 73  2  0  0  0  0
 60 74  1  0  0  0  0
 66 74  1  0  0  0  0
 70 74  2  0  0  0  0
 56 75  1  0  0  0  0
 59 75  1  0  0  0  0
 56 76  1  0  0  0  0
 57 76  1  0  0  0  0
 57 77  1  0  0  0  0
 58 77  1  0  0  0  0
 57 78  1  0  0  0  0
 59 78  1  0  0  0  0
 57 79  1  0  0  0  0
 60 79  1  0  0  0  0
 59 80  1  0  0  0  0
 61 80  1  0  0  0  0
 60 81  1  0  0  0  0
 61 81  1  0  0  0  0
 62 82  2  0  0  0  0
 63 83  1  0  0  0  0
 64 83  1  0  0  0  0
 58 84  1  0  0  0  0
 64 84  1  0  0  0  0
 63 85  1  0  0  0  0
 65 85  1  0  0  0  0
 63 86  1  0  0  0  0
 66 86  1  0  0  0  0
 65 87  1  0  0  0  0
 67 87  1  0  0  0  0
 66 88  1  0  0  0  0
 67 88  1  0  0  0  0
M  END
