 xtb: 6.7.1pre (5071a88)
          09012620313D

 33 40  0     0  0            999 V2000
   -2.0965   -2.5527    3.4975 Ti  0  0  0  0  0  0  0  0  0  0  0  0
    0.4219   -1.8577    2.2412 Ti  0  0  0  0  0  0  0  0  0  0  0  0
    1.7430   -3.2912    0.0010 Ti  0  0  0  0  0  0  0  0  0  0  0  0
   -2.3260   -0.0417    2.0337 Ti  0  0  0  0  0  0  0  0  0  0  0  0
    2.4802    0.2976    2.8319 Ti  0  0  0  0  0  0  0  0  0  0  0  0
   -0.2638    0.5446    4.2403 Ti  0  0  0  0  0  0  0  0  0  0  0  0
   -2.0506   -3.1163    0.0826 Ti  0  0  0  0  0  0  0  0  0  0  0  0
   -0.4200   -0.8069   -1.2083 Ti  0  0  0  0  0  0  0  0  0  0  0  0
    1.8072   -1.6963   -2.7239 Ti  0  0  0  0  0  0  0  0  0  0  0  0
   -1.7396    1.7172   -0.4772 Ti  0  0  0  0  0  0  0  0  0  0  0  0
    2.5591    0.3225   -0.1652 Ti  0  0  0  0  0  0  0  0  0  0  0  0
    0.9298    1.8993   -2.1219 Ti  0  0  0  0  0  0  0  0  0  0  0  0
   -3.6039    1.3353    1.2016 C   0  0  0  0  0  0  0  0  0  0  0  0
    4.3278    0.1885    0.8889 C   0  0  0  0  0  0  0  0  0  0  0  0
    0.6375    2.0037    1.2311 C   0  0  0  0  0  0  0  0  0  0  0  0
   -3.5774    2.1722    0.2829 C   0  0  0  0  0  0  0  0  0  0  0  0
    4.4101    0.3262    2.1217 C   0  0  0  0  0  0  0  0  0  0  0  0
   -0.5728    2.3446    0.9986 C   0  0  0  0  0  0  0  0  0  0  0  0
    1.9094    1.6525    1.4284 C   0  0  0  0  0  0  0  0  0  0  0  0
   -3.1312   -1.6556    2.3380 O   0  0  0  0  0  0  0  0  0  0  0  0
   -0.3388   -2.4652    3.7127 O   0  0  0  0  0  0  0  0  0  0  0  0
    0.4505   -3.2887    1.2480 O   0  0  0  0  0  0  0  0  0  0  0  0
   -0.7241   -0.7367    1.6423 O   0  0  0  0  0  0  0  0  0  0  0  0
    2.0369   -1.3020    2.1663 O   0  0  0  0  0  0  0  0  0  0  0  0
   -1.9271    0.4487    3.6471 O   0  0  0  0  0  0  0  0  0  0  0  0
    1.4528    0.4770    4.2365 O   0  0  0  0  0  0  0  0  0  0  0  0
   -0.7837   -2.5199   -1.0296 O   0  0  0  0  0  0  0  0  0  0  0  0
    0.2343   -0.7869   -2.8282 O   0  0  0  0  0  0  0  0  0  0  0  0
    2.5769   -2.5068   -1.3340 O   0  0  0  0  0  0  0  0  0  0  0  0
   -1.9071   -0.1104   -0.6540 O   0  0  0  0  0  0  0  0  0  0  0  0
    0.9568   -0.4406   -0.2654 O   0  0  0  0  0  0  0  0  0  0  0  0
   -0.7777    2.0534   -1.9046 O   0  0  0  0  0  0  0  0  0  0  0  0
    2.5172    1.2247   -1.6484 O   0  0  0  0  0  0  0  0  0  0  0  0
  1  7  1  0  0  0  0
  4 13  1  0  0  0  0
 11 14  1  0  0  0  0
 10 16  1  0  0  0  0
 13 16  3  0  0  0  0
  5 17  1  0  0  0  0
 14 17  3  0  0  0  0
 10 18  1  0  0  0  0
 15 18  2  0  0  0  0
  5 19  1  0  0  0  0
 11 19  1  0  0  0  0
 15 19  2  0  0  0  0
  1 20  1  0  0  0  0
  4 20  1  0  0  0  0
  1 21  1  0  0  0  0
  2 21  1  0  0  0  0
  2 22  1  0  0  0  0
  3 22  1  0  0  0  0
  2 23  1  0  0  0  0
  4 23  1  0  0  0  0
  2 24  1  0  0  0  0
  5 24  1  0  0  0  0
  4 25  1  0  0  0  0
  6 25  1  0  0  0  0
  5 26  1  0  0  0  0
  6 26  1  0  0  0  0
  7 27  1  0  0  0  0
  8 27  1  0  0  0  0
  8 28  1  0  0  0  0
  9 28  1  0  0  0  0
  3 29  1  0  0  0  0
  9 29  1  0  0  0  0
  8 30  1  0  0  0  0
 10 30  1  0  0  0  0
  8 31  1  0  0  0  0
 11 31  1  0  0  0  0
 10 32  1  0  0  0  0
 12 32  1  0  0  0  0
 11 33  1  0  0  0  0
 12 33  1  0  0  0  0
M  END
