 xtb: 6.7.1pre (5071a88)
          08312621533D

106119  0     0  0            999 V2000
   -1.8972   -4.9043   12.0231 C   0  0  0  0  0  0  0  0  0  0  0  0
   -1.2444   -3.9398   11.2084 O   0  0  0  0  0  0  0  0  0  0  0  0
   -2.0385   -3.1322   10.4391 C   0  0  0  0  0  0  0  0  0  0  0  0
   -1.3385   -2.2031    9.6648 C   0  0  0  0  0  0  0  0  0  0  0  0
   -2.0125   -1.3068    8.8264 C   0  0  0  0  0  0  0  0  0  0  0  0
   -1.2427   -0.2914    8.0139 C   0  0  0  0  0  0  0  0  0  0  0  0
   -0.8807    0.9571    8.7924 C   0  0  0  0  0  0  0  0  0  0  0  0
    0.3858    1.1308    9.3786 C   0  0  0  0  0  0  0  0  0  0  0  0
    1.3752    0.1364    9.1639 N   0  0  0  0  0  0  0  0  0  0  0  0
    2.2775    0.5756    8.0933 C   0  0  0  0  0  0  0  0  0  0  0  0
    3.2608   -0.5503    7.7720 C   0  0  0  0  0  0  0  0  0  0  0  0
    4.0659   -0.9873    9.0197 C   0  0  0  0  0  0  0  0  0  0  0  0
    4.9690   -2.1224    8.6778 N   0  0  0  0  0  0  0  0  0  0  0  0
    6.0817   -1.7329    7.7719 C   0  0  0  0  0  0  0  0  0  0  0  0
    7.1870   -0.9084    8.4584 C   0  0  0  0  0  0  0  0  0  0  0  0
    7.7211   -1.5871    9.6016 O   0  0  0  0  0  0  0  0  0  0  0  0
    6.6807   -1.9340   10.5246 C   0  0  0  0  0  0  0  0  0  0  0  0
    5.5997   -2.7882    9.8433 C   0  0  0  0  0  0  0  0  0  0  0  0
    3.0630   -1.3241   10.1495 C   0  0  0  0  0  0  0  0  0  0  0  0
    2.0978   -0.1657   10.4051 C   0  0  0  0  0  0  0  0  0  0  0  0
    0.7133    2.2033   10.1274 N   0  0  0  0  0  0  0  0  0  0  0  0
   -0.2494    3.1348   10.2972 C   0  0  0  0  0  0  0  0  0  0  0  0
   -0.2466    4.3011   11.0707 C   0  0  0  0  0  0  0  0  0  0  0  0
   -1.4070    4.9533   11.0166 N   0  0  0  0  0  0  0  0  0  0  0  0
   -2.1589    4.2412   10.1243 N   0  0  0  0  0  0  0  0  0  0  0  0
   -1.5120    3.0741    9.7233 C   0  0  0  0  0  0  0  0  0  0  0  0
   -1.8651    1.9461    8.9752 C   0  0  0  0  0  0  0  0  0  0  0  0
   -3.4282    4.7654    9.7311 C   0  0  0  0  0  0  0  0  0  0  0  0
   -4.0907    4.3315    8.5746 C   0  0  0  0  0  0  0  0  0  0  0  0
   -5.3339    4.8731    8.2243 C   0  0  0  0  0  0  0  0  0  0  0  0
   -5.9173    5.8574    9.0181 C   0  0  0  0  0  0  0  0  0  0  0  0
   -5.2492    6.3046   10.1500 C   0  0  0  0  0  0  0  0  0  0  0  0
   -5.8056    7.2591   10.9073 F   0  0  0  0  0  0  0  0  0  0  0  0
   -4.0135    5.7777   10.5099 C   0  0  0  0  0  0  0  0  0  0  0  0
   -3.4107   -1.3576    8.7778 C   0  0  0  0  0  0  0  0  0  0  0  0
   -4.1241   -2.2815    9.5470 C   0  0  0  0  0  0  0  0  0  0  0  0
   -5.4832   -2.2108    9.3949 O   0  0  0  0  0  0  0  0  0  0  0  0
   -6.2677   -3.1140   10.1632 C   0  0  0  0  0  0  0  0  0  0  0  0
   -3.4345   -3.1694   10.3778 C   0  0  0  0  0  0  0  0  0  0  0  0
   -2.5458   -4.4228   12.7623 H   0  0  0  0  0  0  0  0  0  0  0  0
   -1.1266   -5.4584   12.5678 H   0  0  0  0  0  0  0  0  0  0  0  0
   -2.4556   -5.6227   11.4140 H   0  0  0  0  0  0  0  0  0  0  0  0
   -0.2518   -2.1793    9.7200 H   0  0  0  0  0  0  0  0  0  0  0  0
   -0.3572   -0.7710    7.5797 H   0  0  0  0  0  0  0  0  0  0  0  0
   -1.8369    0.0024    7.1372 H   0  0  0  0  0  0  0  0  0  0  0  0
    1.7117    0.8103    7.1824 H   0  0  0  0  0  0  0  0  0  0  0  0
    2.8310    1.4795    8.3826 H   0  0  0  0  0  0  0  0  0  0  0  0
    2.7081   -1.4105    7.3708 H   0  0  0  0  0  0  0  0  0  0  0  0
    3.9205   -0.1912    6.9763 H   0  0  0  0  0  0  0  0  0  0  0  0
    4.6597   -0.1303    9.3616 H   0  0  0  0  0  0  0  0  0  0  0  0
    6.5321   -2.6618    7.3965 H   0  0  0  0  0  0  0  0  0  0  0  0
    5.7235   -1.2103    6.8812 H   0  0  0  0  0  0  0  0  0  0  0  0
    6.8274    0.0802    8.7640 H   0  0  0  0  0  0  0  0  0  0  0  0
    8.0136   -0.7513    7.7578 H   0  0  0  0  0  0  0  0  0  0  0  0
    7.1426   -2.5049   11.3364 H   0  0  0  0  0  0  0  0  0  0  0  0
    6.2636   -1.0193   10.9605 H   0  0  0  0  0  0  0  0  0  0  0  0
    6.0732   -3.7086    9.4743 H   0  0  0  0  0  0  0  0  0  0  0  0
    4.8579   -3.1309   10.5702 H   0  0  0  0  0  0  0  0  0  0  0  0
    2.4946   -2.2262    9.8877 H   0  0  0  0  0  0  0  0  0  0  0  0
    3.5859   -1.5229   11.0910 H   0  0  0  0  0  0  0  0  0  0  0  0
    2.6646    0.7010   10.7714 H   0  0  0  0  0  0  0  0  0  0  0  0
    1.3929   -0.4652   11.1912 H   0  0  0  0  0  0  0  0  0  0  0  0
    0.5523    4.6874   11.6882 H   0  0  0  0  0  0  0  0  0  0  0  0
   -2.8632    1.7980    8.5819 H   0  0  0  0  0  0  0  0  0  0  0  0
   -3.6521    3.6156    7.8894 H   0  0  0  0  0  0  0  0  0  0  0  0
   -5.8396    4.5351    7.3226 H   0  0  0  0  0  0  0  0  0  0  0  0
   -6.8793    6.2867    8.7570 H   0  0  0  0  0  0  0  0  0  0  0  0
   -3.5323    6.1601   11.4068 H   0  0  0  0  0  0  0  0  0  0  0  0
   -3.9610   -0.6727    8.1368 H   0  0  0  0  0  0  0  0  0  0  0  0
   -6.0511   -4.1528    9.8933 H   0  0  0  0  0  0  0  0  0  0  0  0
   -6.1271   -2.9454   11.2360 H   0  0  0  0  0  0  0  0  0  0  0  0
   -7.3201   -2.9229    9.9318 H   0  0  0  0  0  0  0  0  0  0  0  0
   -3.9815   -3.8863   10.9746 H   0  0  0  0  0  0  0  0  0  0  0  0
   -2.1419   -3.0088    2.1197 Ti  0  0  0  0  0  0  0  0  0  0  0  0
    0.2890   -1.6948    1.4324 Ti  0  0  0  0  0  0  0  0  0  0  0  0
    1.9031   -3.0677   -0.7293 Ti  0  0  0  0  0  0  0  0  0  0  0  0
   -2.5215   -0.2519    1.3037 Ti  0  0  0  0  0  0  0  0  0  0  0  0
    2.1420    0.4995    2.2044 Ti  0  0  0  0  0  0  0  0  0  0  0  0
   -0.6814    0.1896    3.6812 Ti  0  0  0  0  0  0  0  0  0  0  0  0
   -2.0368   -3.0777   -1.2005 Ti  0  0  0  0  0  0  0  0  0  0  0  0
   -0.6053   -0.7709   -2.0351 Ti  0  0  0  0  0  0  0  0  0  0  0  0
    1.9455   -1.5873   -3.4124 Ti  0  0  0  0  0  0  0  0  0  0  0  0
   -1.8782    1.7466   -1.2400 Ti  0  0  0  0  0  0  0  0  0  0  0  0
    2.4125    0.4542   -0.7742 Ti  0  0  0  0  0  0  0  0  0  0  0  0
    0.8177    1.8385   -2.9400 Ti  0  0  0  0  0  0  0  0  0  0  0  0
   -3.6784    1.2814    0.6007 C   0  0  0  0  0  0  0  0  0  0  0  0
    4.1282    0.4828    0.3873 C   0  0  0  0  0  0  0  0  0  0  0  0
    0.4555    2.2672    0.3497 C   0  0  0  0  0  0  0  0  0  0  0  0
   -3.6667    2.1188   -0.3139 C   0  0  0  0  0  0  0  0  0  0  0  0
    4.1160    0.6322    1.6214 C   0  0  0  0  0  0  0  0  0  0  0  0
   -0.6352    2.7410   -0.1189 C   0  0  0  0  0  0  0  0  0  0  0  0
    1.6301    1.7810    0.7342 C   0  0  0  0  0  0  0  0  0  0  0  0
   -3.0935   -1.9569    1.0379 O   0  0  0  0  0  0  0  0  0  0  0  0
   -0.4872   -2.6058    2.7012 O   0  0  0  0  0  0  0  0  0  0  0  0
    0.3141   -2.8889    0.1450 O   0  0  0  0  0  0  0  0  0  0  0  0
   -0.8008   -0.4359    0.9712 O   0  0  0  0  0  0  0  0  0  0  0  0
    1.9029   -1.1583    1.4694 O   0  0  0  0  0  0  0  0  0  0  0  0
   -2.3227   -0.1139    3.0248 O   0  0  0  0  0  0  0  0  0  0  0  0
    1.0138    0.4416    3.5688 O   0  0  0  0  0  0  0  0  0  0  0  0
   -1.7720   -4.5879   -1.6528 O   0  0  0  0  0  0  0  0  0  0  0  0
    0.1906   -1.1892   -3.5340 O   0  0  0  0  0  0  0  0  0  0  0  0
    2.8314   -2.1702   -1.9180 O   0  0  0  0  0  0  0  0  0  0  0  0
   -2.0546   -0.2244   -1.3375 O   0  0  0  0  0  0  0  0  0  0  0  0
    0.7685   -0.3906   -1.0637 O   0  0  0  0  0  0  0  0  0  0  0  0
   -0.9000    1.6493   -2.8186 O   0  0  0  0  0  0  0  0  0  0  0  0
    2.4153    1.3575   -2.2641 O   0  0  0  0  0  0  0  0  0  0  0  0
  1  2  1  0  0  0  0
  2  3  1  0  0  0  0
  3  4  4  0  0  0  0
  4  5  4  0  0  0  0
  5  6  1  0  0  0  0
  6  7  1  0  0  0  0
  7  8  4  0  0  0  0
  8  9  1  0  0  0  0
  9 10  1  0  0  0  0
 10 11  1  0  0  0  0
 11 12  1  0  0  0  0
 12 13  1  0  0  0  0
 13 14  1  0  0  0  0
 14 15  1  0  0  0  0
 15 16  1  0  0  0  0
 16 17  1  0  0  0  0
 13 18  1  0  0  0  0
 17 18  1  0  0  0  0
 12 19  1  0  0  0  0
  9 20  1  0  0  0  0
 19 20  1  0  0  0  0
  8 21  4  0  0  0  0
 21 22  4  0  0  0  0
 22 23  4  0  0  0  0
 23 24  2  0  0  0  0
 24 25  1  0  0  0  0
 22 26  4  0  0  0  0
 25 26  1  0  0  0  0
  7 27  4  0  0  0  0
 26 27  4  0  0  0  0
 25 28  1  0  0  0  0
 28 29  4  0  0  0  0
 29 30  4  0  0  0  0
 30 31  4  0  0  0  0
 31 32  4  0  0  0  0
 32 33  1  0  0  0  0
 28 34  4  0  0  0  0
 32 34  4  0  0  0  0
  5 35  4  0  0  0  0
 35 36  4  0  0  0  0
 36 37  1  0  0  0  0
 37 38  1  0  0  0  0
  3 39  4  0  0  0  0
 36 39  4  0  0  0  0
  1 40  1  0  0  0  0
  1 41  1  0  0  0  0
  1 42  1  0  0  0  0
  4 43  1  0  0  0  0
  6 44  1  0  0  0  0
  6 45  1  0  0  0  0
 10 46  1  0  0  0  0
 10 47  1  0  0  0  0
 11 48  1  0  0  0  0
 11 49  1  0  0  0  0
 12 50  1  0  0  0  0
 14 51  1  0  0  0  0
 14 52  1  0  0  0  0
 15 53  1  0  0  0  0
 15 54  1  0  0  0  0
 17 55  1  0  0  0  0
 17 56  1  0  0  0  0
 18 57  1  0  0  0  0
 18 58  1  0  0  0  0
 19 59  1  0  0  0  0
 19 60  1  0  0  0  0
 20 61  1  0  0  0  0
 20 62  1  0  0  0  0
 23 63  1  0  0  0  0
 27 64  1  0  0  0  0
 29 65  1  0  0  0  0
 30 66  1  0  0  0  0
 31 67  1  0  0  0  0
 34 68  1  0  0  0  0
 35 69  1  0  0  0  0
 38 70  1  0  0  0  0
 38 71  1  0  0  0  0
 38 72  1  0  0  0  0
 39 73  1  0  0  0  0
 74 80  1  0  0  0  0
 80 81  1  0  0  0  0
 76 82  1  0  0  0  0
 77 86  1  0  0  0  0
 84 87  1  0  0  0  0
 83 89  1  0  0  0  0
 86 89  3  0  0  0  0
 78 90  1  0  0  0  0
 87 90  3  0  0  0  0
 83 91  1  0  0  0  0
 88 91  2  0  0  0  0
 78 92  1  0  0  0  0
 84 92  1  0  0  0  0
 88 92  2  0  0  0  0
 74 93  1  0  0  0  0
 77 93  1  0  0  0  0
 74 94  1  0  0  0  0
 75 94  1  0  0  0  0
 75 95  1  0  0  0  0
 76 95  1  0  0  0  0
 75 96  1  0  0  0  0
 77 96  1  0  0  0  0
 75 97  1  0  0  0  0
 78 97  1  0  0  0  0
 77 98  1  0  0  0  0
 79 98  1  0  0  0  0
 78 99  1  0  0  0  0
 79 99  1  0  0  0  0
 80100  2  0  0  0  0
 81101  1  0  0  0  0
 82101  1  0  0  0  0
 76102  1  0  0  0  0
 82102  1  0  0  0  0
 81103  1  0  0  0  0
 83103  1  0  0  0  0
 81104  1  0  0  0  0
 84104  1  0  0  0  0
 83105  1  0  0  0  0
 85105  1  0  0  0  0
 84106  1  0  0  0  0
 85106  1  0  0  0  0
M  END
