 xtb: 6.7.1pre (5071a88)
          08312620553D

106120  0     0  0            999 V2000
   -2.6689   -5.1538    3.9468 C   0  0  0  0  0  0  0  0  0  0  0  0
   -1.8044   -4.1985    4.5472 O   0  0  0  0  0  0  0  0  0  0  0  0
   -2.3683   -3.3090    5.4220 C   0  0  0  0  0  0  0  0  0  0  0  0
   -1.4742   -2.3749    5.9517 C   0  0  0  0  0  0  0  0  0  0  0  0
   -1.9026   -1.4012    6.8623 C   0  0  0  0  0  0  0  0  0  0  0  0
   -0.9285   -0.3809    7.4058 C   0  0  0  0  0  0  0  0  0  0  0  0
   -0.6635    0.7626    6.4483 C   0  0  0  0  0  0  0  0  0  0  0  0
    0.5039    0.8306    5.6657 C   0  0  0  0  0  0  0  0  0  0  0  0
    1.4785   -0.1900    5.8139 N   0  0  0  0  0  0  0  0  0  0  0  0
    2.0245   -0.5985    4.5076 C   0  0  0  0  0  0  0  0  0  0  0  0
    2.9643   -1.7866    4.7260 C   0  0  0  0  0  0  0  0  0  0  0  0
    4.1353   -1.4253    5.6742 C   0  0  0  0  0  0  0  0  0  0  0  0
    5.0993   -0.5031    5.0248 N   0  0  0  0  0  0  0  0  0  0  0  0
    5.8461   -1.1239    3.9016 C   0  0  0  0  0  0  0  0  0  0  0  0
    7.3271   -1.4064    4.2100 C   0  0  0  0  0  0  0  0  0  0  0  0
    8.0637   -0.2361    4.5795 O   0  0  0  0  0  0  0  0  0  0  0  0
    7.2523    0.7490    5.2300 C   0  0  0  0  0  0  0  0  0  0  0  0
    6.0470    0.1383    5.9624 C   0  0  0  0  0  0  0  0  0  0  0  0
    3.5039   -0.8832    6.9810 C   0  0  0  0  0  0  0  0  0  0  0  0
    2.5396    0.2764    6.7221 C   0  0  0  0  0  0  0  0  0  0  0  0
    0.7557    1.8363    4.8039 N   0  0  0  0  0  0  0  0  0  0  0  0
   -0.1975    2.7853    4.6894 C   0  0  0  0  0  0  0  0  0  0  0  0
   -0.2070    3.9718    3.9461 C   0  0  0  0  0  0  0  0  0  0  0  0
   -1.3243    4.6774    4.1231 N   0  0  0  0  0  0  0  0  0  0  0  0
   -2.1039    3.8835    4.9166 N   0  0  0  0  0  0  0  0  0  0  0  0
   -1.4052    2.7690    5.3721 C   0  0  0  0  0  0  0  0  0  0  0  0
   -1.6454    1.7607    6.3098 C   0  0  0  0  0  0  0  0  0  0  0  0
   -3.4581    4.2678    5.1537 C   0  0  0  0  0  0  0  0  0  0  0  0
   -4.4229    3.3547    5.6029 C   0  0  0  0  0  0  0  0  0  0  0  0
   -5.7425    3.7690    5.8208 C   0  0  0  0  0  0  0  0  0  0  0  0
   -6.1091    5.0910    5.5811 C   0  0  0  0  0  0  0  0  0  0  0  0
   -5.1586    5.9880    5.1112 C   0  0  0  0  0  0  0  0  0  0  0  0
   -5.5153    7.2565    4.8701 F   0  0  0  0  0  0  0  0  0  0  0  0
   -3.8445    5.5914    4.8877 C   0  0  0  0  0  0  0  0  0  0  0  0
   -3.2523   -1.3775    7.2338 C   0  0  0  0  0  0  0  0  0  0  0  0
   -4.1579   -2.3047    6.7106 C   0  0  0  0  0  0  0  0  0  0  0  0
   -5.4421   -2.1540    7.1617 O   0  0  0  0  0  0  0  0  0  0  0  0
   -6.4079   -3.0825    6.6852 C   0  0  0  0  0  0  0  0  0  0  0  0
   -3.7125   -3.2716    5.8043 C   0  0  0  0  0  0  0  0  0  0  0  0
   -3.1079   -5.8163    4.6999 H   0  0  0  0  0  0  0  0  0  0  0  0
   -3.4448   -4.6642    3.3490 H   0  0  0  0  0  0  0  0  0  0  0  0
   -2.0682   -5.7704    3.2713 H   0  0  0  0  0  0  0  0  0  0  0  0
   -0.4304   -2.4054    5.6441 H   0  0  0  0  0  0  0  0  0  0  0  0
   -1.3153    0.0348    8.3466 H   0  0  0  0  0  0  0  0  0  0  0  0
   -0.0054   -0.8918    7.7034 H   0  0  0  0  0  0  0  0  0  0  0  0
    1.2090   -0.9183    3.8465 H   0  0  0  0  0  0  0  0  0  0  0  0
    2.5623    0.2184    4.0089 H   0  0  0  0  0  0  0  0  0  0  0  0
    3.3124   -2.1543    3.7563 H   0  0  0  0  0  0  0  0  0  0  0  0
    2.3970   -2.6146    5.1730 H   0  0  0  0  0  0  0  0  0  0  0  0
    4.6705   -2.3492    5.9328 H   0  0  0  0  0  0  0  0  0  0  0  0
    5.7972   -0.4168    3.0642 H   0  0  0  0  0  0  0  0  0  0  0  0
    5.3876   -2.0534    3.5519 H   0  0  0  0  0  0  0  0  0  0  0  0
    7.8168   -1.8358    3.3299 H   0  0  0  0  0  0  0  0  0  0  0  0
    7.4188   -2.1393    5.0203 H   0  0  0  0  0  0  0  0  0  0  0  0
    6.9249    1.4764    4.4777 H   0  0  0  0  0  0  0  0  0  0  0  0
    7.8926    1.2825    5.9400 H   0  0  0  0  0  0  0  0  0  0  0  0
    6.4195   -0.5984    6.6859 H   0  0  0  0  0  0  0  0  0  0  0  0
    5.5380    0.9374    6.5109 H   0  0  0  0  0  0  0  0  0  0  0  0
    4.2656   -0.5841    7.7084 H   0  0  0  0  0  0  0  0  0  0  0  0
    2.9484   -1.7021    7.4593 H   0  0  0  0  0  0  0  0  0  0  0  0
    3.0745    1.1392    6.3045 H   0  0  0  0  0  0  0  0  0  0  0  0
    2.1113    0.5871    7.6836 H   0  0  0  0  0  0  0  0  0  0  0  0
    0.5698    4.3576    3.3006 H   0  0  0  0  0  0  0  0  0  0  0  0
   -2.5387    1.7365    6.9219 H   0  0  0  0  0  0  0  0  0  0  0  0
   -4.2042    2.3010    5.7392 H   0  0  0  0  0  0  0  0  0  0  0  0
   -6.4869    3.0532    6.1623 H   0  0  0  0  0  0  0  0  0  0  0  0
   -7.1290    5.4247    5.7433 H   0  0  0  0  0  0  0  0  0  0  0  0
   -3.1373    6.3309    4.5202 H   0  0  0  0  0  0  0  0  0  0  0  0
   -3.6122   -0.6311    7.9383 H   0  0  0  0  0  0  0  0  0  0  0  0
   -6.1528   -4.1053    6.9818 H   0  0  0  0  0  0  0  0  0  0  0  0
   -6.5294   -3.0028    5.5999 H   0  0  0  0  0  0  0  0  0  0  0  0
   -7.3681   -2.8321    7.1465 H   0  0  0  0  0  0  0  0  0  0  0  0
   -4.4090   -3.9916    5.3967 H   0  0  0  0  0  0  0  0  0  0  0  0
   -3.0000   -2.6000    1.2500 Ti  0  0  0  0  0  0  0  0  0  0  0  0
    0.0000   -2.6000    1.2500 Ti  0  0  0  0  0  0  0  0  0  0  0  0
    3.0000   -2.6000    1.2500 Ti  0  0  0  0  0  0  0  0  0  0  0  0
   -1.5000    0.0000    1.2500 Ti  0  0  0  0  0  0  0  0  0  0  0  0
    1.5000    0.0000    1.2500 Ti  0  0  0  0  0  0  0  0  0  0  0  0
    0.0000    2.6000    1.2500 Ti  0  0  0  0  0  0  0  0  0  0  0  0
   -3.0000   -2.6000   -1.2500 Ti  0  0  0  0  0  0  0  0  0  0  0  0
    0.0000   -2.6000   -1.2500 Ti  0  0  0  0  0  0  0  0  0  0  0  0
    3.0000   -2.6000   -1.2500 Ti  0  0  0  0  0  0  0  0  0  0  0  0
   -1.5000    0.0000   -1.2500 Ti  0  0  0  0  0  0  0  0  0  0  0  0
    1.5000    0.0000   -1.2500 Ti  0  0  0  0  0  0  0  0  0  0  0  0
    0.0000    2.6000   -1.2500 Ti  0  0  0  0  0  0  0  0  0  0  0  0
   -1.5000   -1.3000    0.0000 C   0  0  0  0  0  0  0  0  0  0  0  0
    1.5000   -1.3000    0.0000 C   0  0  0  0  0  0  0  0  0  0  0  0
    0.0000    1.3000    0.0000 C   0  0  0  0  0  0  0  0  0  0  0  0
   -3.0000    0.0000    0.0000 C   0  0  0  0  0  0  0  0  0  0  0  0
    3.0000    0.0000    0.0000 C   0  0  0  0  0  0  0  0  0  0  0  0
   -1.5000    2.6000    0.0000 C   0  0  0  0  0  0  0  0  0  0  0  0
    1.5000    2.6000    0.0000 C   0  0  0  0  0  0  0  0  0  0  0  0
   -3.0000   -2.6000    2.4500 O   0  0  0  0  0  0  0  0  0  0  0  0
    0.0000   -2.6000    2.4500 O   0  0  0  0  0  0  0  0  0  0  0  0
    3.0000   -2.6000    2.4500 O   0  0  0  0  0  0  0  0  0  0  0  0
   -1.5000    0.0000    2.4500 O   0  0  0  0  0  0  0  0  0  0  0  0
    1.5000    0.0000    2.4500 O   0  0  0  0  0  0  0  0  0  0  0  0
   -1.5000    2.6000    2.4500 O   0  0  0  0  0  0  0  0  0  0  0  0
    1.5000    2.6000    2.4500 O   0  0  0  0  0  0  0  0  0  0  0  0
   -3.0000   -2.6000   -2.4500 O   0  0  0  0  0  0  0  0  0  0  0  0
    0.0000   -2.6000   -2.4500 O   0  0  0  0  0  0  0  0  0  0  0  0
    3.0000   -2.6000   -2.4500 O   0  0  0  0  0  0  0  0  0  0  0  0
   -1.5000    0.0000   -2.4500 O   0  0  0  0  0  0  0  0  0  0  0  0
    1.5000    0.0000   -2.4500 O   0  0  0  0  0  0  0  0  0  0  0  0
   -1.5000    2.6000   -2.4500 O   0  0  0  0  0  0  0  0  0  0  0  0
    1.5000    2.6000   -2.4500 O   0  0  0  0  0  0  0  0  0  0  0  0
  1  2  1  0  0  0  0
  2  3  1  0  0  0  0
  3  4  4  0  0  0  0
  4  5  4  0  0  0  0
  5  6  1  0  0  0  0
  6  7  1  0  0  0  0
  7  8  4  0  0  0  0
  8  9  1  0  0  0  0
  9 10  1  0  0  0  0
 10 11  1  0  0  0  0
 11 12  1  0  0  0  0
 12 13  1  0  0  0  0
 13 14  1  0  0  0  0
 14 15  1  0  0  0  0
 15 16  1  0  0  0  0
 16 17  1  0  0  0  0
 13 18  1  0  0  0  0
 17 18  1  0  0  0  0
 12 19  1  0  0  0  0
  9 20  1  0  0  0  0
 19 20  1  0  0  0  0
  8 21  4  0  0  0  0
 21 22  4  0  0  0  0
 22 23  1  0  0  0  0
 23 24  2  0  0  0  0
 24 25  1  0  0  0  0
 22 26  4  0  0  0  0
 25 26  1  0  0  0  0
  7 27  4  0  0  0  0
 26 27  4  0  0  0  0
 25 28  1  0  0  0  0
 28 29  4  0  0  0  0
 29 30  4  0  0  0  0
 30 31  4  0  0  0  0
 31 32  4  0  0  0  0
 32 33  1  0  0  0  0
 28 34  4  0  0  0  0
 32 34  4  0  0  0  0
  5 35  4  0  0  0  0
 35 36  4  0  0  0  0
 36 37  1  0  0  0  0
 37 38  1  0  0  0  0
  3 39  4  0  0  0  0
 36 39  4  0  0  0  0
  1 40  1  0  0  0  0
  1 41  1  0  0  0  0
  1 42  1  0  0  0  0
  4 43  1  0  0  0  0
  6 44  1  0  0  0  0
  6 45  1  0  0  0  0
 10 46  1  0  0  0  0
 10 47  1  0  0  0  0
 11 48  1  0  0  0  0
 11 49  1  0  0  0  0
 12 50  1  0  0  0  0
 14 51  1  0  0  0  0
 14 52  1  0  0  0  0
 15 53  1  0  0  0  0
 15 54  1  0  0  0  0
 17 55  1  0  0  0  0
 17 56  1  0  0  0  0
 18 57  1  0  0  0  0
 18 58  1  0  0  0  0
 19 59  1  0  0  0  0
 19 60  1  0  0  0  0
 20 61  1  0  0  0  0
 20 62  1  0  0  0  0
 23 63  1  0  0  0  0
 27 64  1  0  0  0  0
 29 65  1  0  0  0  0
 30 66  1  0  0  0  0
 31 67  1  0  0  0  0
 34 68  1  0  0  0  0
 35 69  1  0  0  0  0
 38 70  1  0  0  0  0
 38 71  1  0  0  0  0
 38 72  1  0  0  0  0
 39 73  1  0  0  0  0
 75 76  1  0  0  0  0
 74 80  1  0  0  0  0
 75 81  1  0  0  0  0
 80 81  1  0  0  0  0
 76 82  1  0  0  0  0
 81 82  1  0  0  0  0
 77 86  1  0  0  0  0
 83 86  1  0  0  0  0
 78 87  1  0  0  0  0
 84 87  1  0  0  0  0
 79 88  1  0  0  0  0
 85 88  1  0  0  0  0
 77 89  1  0  0  0  0
 83 89  1  0  0  0  0
 86 89  1  0  0  0  0
 78 90  1  0  0  0  0
 84 90  1  0  0  0  0
 87 90  1  0  0  0  0
 79 91  1  0  0  0  0
 85 91  1  0  0  0  0
 88 91  1  0  0  0  0
 79 92  1  0  0  0  0
 85 92  1  0  0  0  0
 88 92  1  0  0  0  0
 74 93  2  0  0  0  0
 75 94  2  0  0  0  0
 76 95  2  0  0  0  0
 77 96  2  0  0  0  0
 78 97  2  0  0  0  0
 79 98  1  0  0  0  0
 91 98  1  0  0  0  0
 79 99  1  0  0  0  0
 92 99  1  0  0  0  0
 80100  2  0  0  0  0
 81101  2  0  0  0  0
 82102  2  0  0  0  0
 83103  2  0  0  0  0
 84104  2  0  0  0  0
 85105  1  0  0  0  0
 91105  1  0  0  0  0
 85106  1  0  0  0  0
 92106  1  0  0  0  0
M  END
