 xtb: 6.7.1pre (5071a88)
          08312620553D

 73 86  0     0  0            999 V2000
    3.1088   -1.1637    6.9328 O   0  0  0  0  0  0  0  0  0  0  0  0
    2.5810   -0.9691    5.8410 C   0  0  0  0  0  0  0  0  0  0  0  0
    1.2424   -0.7053    5.6377 N   0  0  0  0  0  0  0  0  0  0  0  0
    0.2777   -0.5381    6.6220 C   0  0  0  0  0  0  0  0  0  0  0  0
    0.5974   -0.5884    7.9220 N   0  0  0  0  0  0  0  0  0  0  0  0
   -0.3668   -0.4166    8.8500 C   0  0  0  0  0  0  0  0  0  0  0  0
   -1.6688   -0.1889    8.4368 C   0  0  0  0  0  0  0  0  0  0  0  0
   -2.9179    0.0327    9.0265 C   0  0  0  0  0  0  0  0  0  0  0  0
   -3.8872    0.2011    8.1286 N   0  0  0  0  0  0  0  0  0  0  0  0
   -3.2642    0.0876    6.9138 N   0  0  0  0  0  0  0  0  0  0  0  0
   -4.0333    0.2193    5.7172 C   0  0  0  0  0  0  0  0  0  0  0  0
   -3.4554    0.1121    4.4436 C   0  0  0  0  0  0  0  0  0  0  0  0
   -4.2431    0.2471    3.2935 C   0  0  0  0  0  0  0  0  0  0  0  0
   -5.6097    0.4895    3.4054 C   0  0  0  0  0  0  0  0  0  0  0  0
   -6.1817    0.5957    4.6659 C   0  0  0  0  0  0  0  0  0  0  0  0
   -7.4963    0.8289    4.7734 F   0  0  0  0  0  0  0  0  0  0  0  0
   -5.4132    0.4640    5.8179 C   0  0  0  0  0  0  0  0  0  0  0  0
   -1.8981   -0.1526    7.0713 C   0  0  0  0  0  0  0  0  0  0  0  0
   -0.9515   -0.3218    6.1225 N   0  0  0  0  0  0  0  0  0  0  0  0
    3.3834   -1.0787    4.5110 C   0  0  0  0  0  0  0  0  0  0  0  0
    3.3508    0.2262    3.6787 C   0  0  0  0  0  0  0  0  0  0  0  0
    4.2542    1.2720    4.1835 N   0  0  0  0  0  0  0  0  0  0  0  0
    5.6060    0.7089    4.3365 C   0  0  0  0  0  0  0  0  0  0  0  0
    5.6041   -0.5743    5.1779 C   0  0  0  0  0  0  0  0  0  0  0  0
    4.7271   -1.5626    4.6191 O   0  0  0  0  0  0  0  0  0  0  0  0
    0.8620   -0.6390    4.7090 H   0  0  0  0  0  0  0  0  0  0  0  0
   -0.0563   -0.4681    9.8871 H   0  0  0  0  0  0  0  0  0  0  0  0
   -3.1683    0.0798   10.0791 H   0  0  0  0  0  0  0  0  0  0  0  0
   -2.3966   -0.0762    4.3018 H   0  0  0  0  0  0  0  0  0  0  0  0
   -3.7870    0.1623    2.3099 H   0  0  0  0  0  0  0  0  0  0  0  0
   -6.2314    0.5961    2.5222 H   0  0  0  0  0  0  0  0  0  0  0  0
   -5.9119    0.5559    6.7795 H   0  0  0  0  0  0  0  0  0  0  0  0
    2.8560   -1.8482    3.9313 H   0  0  0  0  0  0  0  0  0  0  0  0
    2.3391    0.6401    3.6261 H   0  0  0  0  0  0  0  0  0  0  0  0
    3.6499   -0.0110    2.6494 H   0  0  0  0  0  0  0  0  0  0  0  0
    4.2887    2.0495    3.5246 H   0  0  0  0  0  0  0  0  0  0  0  0
    6.0120    0.4908    3.3411 H   0  0  0  0  0  0  0  0  0  0  0  0
    6.2566    1.4553    4.8035 H   0  0  0  0  0  0  0  0  0  0  0  0
    6.6112   -1.0039    5.1900 H   0  0  0  0  0  0  0  0  0  0  0  0
    5.3301   -0.3651    6.2167 H   0  0  0  0  0  0  0  0  0  0  0  0
   -3.0000   -2.6000    1.2500 Ti  0  0  0  0  0  0  0  0  0  0  0  0
    0.0000   -2.6000    1.2500 Ti  0  0  0  0  0  0  0  0  0  0  0  0
    3.0000   -2.6000    1.2500 Ti  0  0  0  0  0  0  0  0  0  0  0  0
   -1.5000    0.0000    1.2500 Ti  0  0  0  0  0  0  0  0  0  0  0  0
    1.5000    0.0000    1.2500 Ti  0  0  0  0  0  0  0  0  0  0  0  0
    0.0000    2.6000    1.2500 Ti  0  0  0  0  0  0  0  0  0  0  0  0
   -3.0000   -2.6000   -1.2500 Ti  0  0  0  0  0  0  0  0  0  0  0  0
    0.0000   -2.6000   -1.2500 Ti  0  0  0  0  0  0  0  0  0  0  0  0
    3.0000   -2.6000   -1.2500 Ti  0  0  0  0  0  0  0  0  0  0  0  0
   -1.5000    0.0000   -1.2500 Ti  0  0  0  0  0  0  0  0  0  0  0  0
    1.5000    0.0000   -1.2500 Ti  0  0  0  0  0  0  0  0  0  0  0  0
    0.0000    2.6000   -1.2500 Ti  0  0  0  0  0  0  0  0  0  0  0  0
   -1.5000   -1.3000    0.0000 C   0  0  0  0  0  0  0  0  0  0  0  0
    1.5000   -1.3000    0.0000 C   0  0  0  0  0  0  0  0  0  0  0  0
    0.0000    1.3000    0.0000 C   0  0  0  0  0  0  0  0  0  0  0  0
   -3.0000    0.0000    0.0000 C   0  0  0  0  0  0  0  0  0  0  0  0
    3.0000    0.0000    0.0000 C   0  0  0  0  0  0  0  0  0  0  0  0
   -1.5000    2.6000    0.0000 C   0  0  0  0  0  0  0  0  0  0  0  0
    1.5000    2.6000    0.0000 C   0  0  0  0  0  0  0  0  0  0  0  0
   -3.0000   -2.6000    2.4500 O   0  0  0  0  0  0  0  0  0  0  0  0
    0.0000   -2.6000    2.4500 O   0  0  0  0  0  0  0  0  0  0  0  0
    3.0000   -2.6000    2.4500 O   0  0  0  0  0  0  0  0  0  0  0  0
   -1.5000    0.0000    2.4500 O   0  0  0  0  0  0  0  0  0  0  0  0
    1.5000    0.0000    2.4500 O   0  0  0  0  0  0  0  0  0  0  0  0
   -1.5000    2.6000    2.4500 O   0  0  0  0  0  0  0  0  0  0  0  0
    1.5000    2.6000    2.4500 O   0  0  0  0  0  0  0  0  0  0  0  0
   -3.0000   -2.6000   -2.4500 O   0  0  0  0  0  0  0  0  0  0  0  0
    0.0000   -2.6000   -2.4500 O   0  0  0  0  0  0  0  0  0  0  0  0
    3.0000   -2.6000   -2.4500 O   0  0  0  0  0  0  0  0  0  0  0  0
   -1.5000    0.0000   -2.4500 O   0  0  0  0  0  0  0  0  0  0  0  0
    1.5000    0.0000   -2.4500 O   0  0  0  0  0  0  0  0  0  0  0  0
   -1.5000    2.6000   -2.4500 O   0  0  0  0  0  0  0  0  0  0  0  0
    1.5000    2.6000   -2.4500 O   0  0  0  0  0  0  0  0  0  0  0  0
  1  2  2  0  0  0  0
  2  3  1  0  0  0  0
  3  4  1  0  0  0  0
  4  5  4  0  0  0  0
  5  6  4  0  0  0  0
  6  7  4  0  0  0  0
  7  8  4  0  0  0  0
  8  9  2  0  0  0  0
  9 10  1  0  0  0  0
 10 11  1  0  0  0  0
 11 12  4  0  0  0  0
 12 13  4  0  0  0  0
 13 14  4  0  0  0  0
 14 15  4  0  0  0  0
 15 16  1  0  0  0  0
 11 17  4  0  0  0  0
 15 17  4  0  0  0  0
  7 18  4  0  0  0  0
 10 18  1  0  0  0  0
  4 19  4  0  0  0  0
 18 19  4  0  0  0  0
  2 20  1  0  0  0  0
 20 21  1  0  0  0  0
 21 22  1  0  0  0  0
 22 23  1  0  0  0  0
 23 24  1  0  0  0  0
 20 25  1  0  0  0  0
 24 25  1  0  0  0  0
  3 26  1  0  0  0  0
  6 27  1  0  0  0  0
  8 28  1  0  0  0  0
 12 29  1  0  0  0  0
 13 30  1  0  0  0  0
 14 31  1  0  0  0  0
 17 32  1  0  0  0  0
 20 33  1  0  0  0  0
 21 34  1  0  0  0  0
 21 35  1  0  0  0  0
 22 36  1  0  0  0  0
 23 37  1  0  0  0  0
 23 38  1  0  0  0  0
 24 39  1  0  0  0  0
 24 40  1  0  0  0  0
 41 42  1  0  0  0  0
 42 43  1  0  0  0  0
 41 47  1  0  0  0  0
 42 48  1  0  0  0  0
 47 48  1  0  0  0  0
 43 49  1  0  0  0  0
 48 49  1  0  0  0  0
 44 53  1  0  0  0  0
 50 53  1  0  0  0  0
 45 54  1  0  0  0  0
 51 54  1  0  0  0  0
 46 55  1  0  0  0  0
 52 55  1  0  0  0  0
 44 56  1  0  0  0  0
 50 56  1  0  0  0  0
 53 56  1  0  0  0  0
 45 57  1  0  0  0  0
 51 57  1  0  0  0  0
 54 57  1  0  0  0  0
 46 58  1  0  0  0  0
 52 58  1  0  0  0  0
 55 58  1  0  0  0  0
 46 59  1  0  0  0  0
 52 59  1  0  0  0  0
 55 59  1  0  0  0  0
 41 60  2  0  0  0  0
 42 61  2  0  0  0  0
 43 62  2  0  0  0  0
 44 63  2  0  0  0  0
 45 64  2  0  0  0  0
 46 65  1  0  0  0  0
 58 65  1  0  0  0  0
 46 66  1  0  0  0  0
 59 66  1  0  0  0  0
 47 67  2  0  0  0  0
 48 68  2  0  0  0  0
 49 69  2  0  0  0  0
 50 70  2  0  0  0  0
 51 71  2  0  0  0  0
 52 72  1  0  0  0  0
 58 72  1  0  0  0  0
 52 73  1  0  0  0  0
 59 73  1  0  0  0  0
M  END
