 xtb: 6.7.1pre (5071a88)
          08312621533D

 73 84  0     0  0            999 V2000
    0.8116    1.1624    7.8145 O   0  0  0  0  0  0  0  0  0  0  0  0
    1.6975    0.3190    7.9107 C   0  0  0  0  0  0  0  0  0  0  0  0
    1.5236   -1.0435    7.9771 N   0  0  0  0  0  0  0  0  0  0  0  0
    0.3212   -1.7264    7.9614 C   0  0  0  0  0  0  0  0  0  0  0  0
    0.4544   -3.0585    8.1204 N   0  0  0  0  0  0  0  0  0  0  0  0
   -0.6552   -3.8322    8.1165 C   0  0  0  0  0  0  0  0  0  0  0  0
   -1.8967   -3.2391    7.9492 C   0  0  0  0  0  0  0  0  0  0  0  0
   -3.2371   -3.6350    7.8838 C   0  0  0  0  0  0  0  0  0  0  0  0
   -4.0693   -2.6106    7.7013 N   0  0  0  0  0  0  0  0  0  0  0  0
   -3.2573   -1.5050    7.6459 N   0  0  0  0  0  0  0  0  0  0  0  0
   -3.8368   -0.2129    7.4583 C   0  0  0  0  0  0  0  0  0  0  0  0
   -5.2352   -0.1032    7.3265 C   0  0  0  0  0  0  0  0  0  0  0  0
   -5.8410    1.1432    7.1415 C   0  0  0  0  0  0  0  0  0  0  0  0
   -5.0575    2.2914    7.0867 C   0  0  0  0  0  0  0  0  0  0  0  0
   -3.6780    2.1837    7.2172 C   0  0  0  0  0  0  0  0  0  0  0  0
   -2.9307    3.2944    7.1639 F   0  0  0  0  0  0  0  0  0  0  0  0
   -3.0583    0.9491    7.4020 C   0  0  0  0  0  0  0  0  0  0  0  0
   -1.9189   -1.8646    7.7933 C   0  0  0  0  0  0  0  0  0  0  0  0
   -0.8308   -1.0730    7.7911 N   0  0  0  0  0  0  0  0  0  0  0  0
    3.1905    0.6940    7.9123 C   0  0  0  0  0  0  0  0  0  0  0  0
    3.3752    2.1590    8.3562 C   0  0  0  0  0  0  0  0  0  0  0  0
    4.7904    2.5799    8.3891 N   0  0  0  0  0  0  0  0  0  0  0  0
    5.6682    1.4738    8.7968 C   0  0  0  0  0  0  0  0  0  0  0  0
    4.9310    0.3469    9.5317 C   0  0  0  0  0  0  0  0  0  0  0  0
    3.9168   -0.2575    8.7204 O   0  0  0  0  0  0  0  0  0  0  0  0
    2.3380   -1.6182    8.1479 H   0  0  0  0  0  0  0  0  0  0  0  0
   -0.5075   -4.8978    8.2473 H   0  0  0  0  0  0  0  0  0  0  0  0
   -3.6506   -4.6327    7.9611 H   0  0  0  0  0  0  0  0  0  0  0  0
   -5.8729   -0.9855    7.3655 H   0  0  0  0  0  0  0  0  0  0  0  0
   -6.9211    1.2132    7.0410 H   0  0  0  0  0  0  0  0  0  0  0  0
   -5.5086    3.2679    6.9438 H   0  0  0  0  0  0  0  0  0  0  0  0
   -1.9774    0.9493    7.4964 H   0  0  0  0  0  0  0  0  0  0  0  0
    3.5475    0.5758    6.8812 H   0  0  0  0  0  0  0  0  0  0  0  0
    2.9524    2.2906    9.3609 H   0  0  0  0  0  0  0  0  0  0  0  0
    2.8286    2.8369    7.6913 H   0  0  0  0  0  0  0  0  0  0  0  0
    4.8841    3.3653    9.0333 H   0  0  0  0  0  0  0  0  0  0  0  0
    6.4786    1.8641    9.4215 H   0  0  0  0  0  0  0  0  0  0  0  0
    6.1251    1.0652    7.8879 H   0  0  0  0  0  0  0  0  0  0  0  0
    5.6372   -0.4414    9.8116 H   0  0  0  0  0  0  0  0  0  0  0  0
    4.4691    0.7121   10.4565 H   0  0  0  0  0  0  0  0  0  0  0  0
   -2.1419   -3.0088    2.1197 Ti  0  0  0  0  0  0  0  0  0  0  0  0
    0.2890   -1.6948    1.4324 Ti  0  0  0  0  0  0  0  0  0  0  0  0
    1.9031   -3.0677   -0.7293 Ti  0  0  0  0  0  0  0  0  0  0  0  0
   -2.5215   -0.2519    1.3037 Ti  0  0  0  0  0  0  0  0  0  0  0  0
    2.1420    0.4995    2.2044 Ti  0  0  0  0  0  0  0  0  0  0  0  0
   -0.6814    0.1896    3.6812 Ti  0  0  0  0  0  0  0  0  0  0  0  0
   -2.0368   -3.0777   -1.2005 Ti  0  0  0  0  0  0  0  0  0  0  0  0
   -0.6053   -0.7709   -2.0351 Ti  0  0  0  0  0  0  0  0  0  0  0  0
    1.9455   -1.5873   -3.4124 Ti  0  0  0  0  0  0  0  0  0  0  0  0
   -1.8782    1.7466   -1.2400 Ti  0  0  0  0  0  0  0  0  0  0  0  0
    2.4125    0.4542   -0.7742 Ti  0  0  0  0  0  0  0  0  0  0  0  0
    0.8177    1.8385   -2.9400 Ti  0  0  0  0  0  0  0  0  0  0  0  0
   -3.6784    1.2814    0.6007 C   0  0  0  0  0  0  0  0  0  0  0  0
    4.1282    0.4828    0.3873 C   0  0  0  0  0  0  0  0  0  0  0  0
    0.4555    2.2672    0.3497 C   0  0  0  0  0  0  0  0  0  0  0  0
   -3.6667    2.1188   -0.3139 C   0  0  0  0  0  0  0  0  0  0  0  0
    4.1160    0.6322    1.6214 C   0  0  0  0  0  0  0  0  0  0  0  0
   -0.6352    2.7410   -0.1189 C   0  0  0  0  0  0  0  0  0  0  0  0
    1.6301    1.7810    0.7342 C   0  0  0  0  0  0  0  0  0  0  0  0
   -3.0935   -1.9569    1.0379 O   0  0  0  0  0  0  0  0  0  0  0  0
   -0.4872   -2.6058    2.7012 O   0  0  0  0  0  0  0  0  0  0  0  0
    0.3141   -2.8889    0.1450 O   0  0  0  0  0  0  0  0  0  0  0  0
   -0.8008   -0.4359    0.9712 O   0  0  0  0  0  0  0  0  0  0  0  0
    1.9029   -1.1583    1.4694 O   0  0  0  0  0  0  0  0  0  0  0  0
   -2.3227   -0.1139    3.0248 O   0  0  0  0  0  0  0  0  0  0  0  0
    1.0138    0.4416    3.5688 O   0  0  0  0  0  0  0  0  0  0  0  0
   -1.7720   -4.5879   -1.6528 O   0  0  0  0  0  0  0  0  0  0  0  0
    0.1906   -1.1892   -3.5340 O   0  0  0  0  0  0  0  0  0  0  0  0
    2.8314   -2.1702   -1.9180 O   0  0  0  0  0  0  0  0  0  0  0  0
   -2.0546   -0.2244   -1.3375 O   0  0  0  0  0  0  0  0  0  0  0  0
    0.7685   -0.3906   -1.0637 O   0  0  0  0  0  0  0  0  0  0  0  0
   -0.9000    1.6493   -2.8186 O   0  0  0  0  0  0  0  0  0  0  0  0
    2.4153    1.3575   -2.2641 O   0  0  0  0  0  0  0  0  0  0  0  0
  1  2  2  0  0  0  0
  2  3  1  0  0  0  0
  3  4  1  0  0  0  0
  4  5  4  0  0  0  0
  5  6  4  0  0  0  0
  6  7  4  0  0  0  0
  7  8  4  0  0  0  0
  8  9  2  0  0  0  0
  9 10  1  0  0  0  0
 10 11  1  0  0  0  0
 11 12  4  0  0  0  0
 12 13  4  0  0  0  0
 13 14  4  0  0  0  0
 14 15  4  0  0  0  0
 15 16  1  0  0  0  0
 11 17  4  0  0  0  0
 15 17  4  0  0  0  0
  7 18  4  0  0  0  0
 10 18  1  0  0  0  0
  4 19  4  0  0  0  0
 18 19  4  0  0  0  0
  2 20  1  0  0  0  0
 20 21  1  0  0  0  0
 21 22  1  0  0  0  0
 22 23  1  0  0  0  0
 23 24  1  0  0  0  0
 20 25  1  0  0  0  0
 24 25  1  0  0  0  0
  3 26  1  0  0  0  0
  6 27  1  0  0  0  0
  8 28  1  0  0  0  0
 12 29  1  0  0  0  0
 13 30  1  0  0  0  0
 14 31  1  0  0  0  0
 17 32  1  0  0  0  0
 20 33  1  0  0  0  0
 21 34  1  0  0  0  0
 21 35  1  0  0  0  0
 22 36  1  0  0  0  0
 23 37  1  0  0  0  0
 23 38  1  0  0  0  0
 24 39  1  0  0  0  0
 24 40  1  0  0  0  0
 41 47  1  0  0  0  0
 47 48  1  0  0  0  0
 43 49  1  0  0  0  0
 44 53  1  0  0  0  0
 51 54  1  0  0  0  0
 50 56  1  0  0  0  0
 53 56  3  0  0  0  0
 45 57  1  0  0  0  0
 54 57  3  0  0  0  0
 50 58  1  0  0  0  0
 55 58  2  0  0  0  0
 45 59  1  0  0  0  0
 51 59  1  0  0  0  0
 55 59  2  0  0  0  0
 41 60  1  0  0  0  0
 44 60  1  0  0  0  0
 41 61  1  0  0  0  0
 42 61  1  0  0  0  0
 42 62  1  0  0  0  0
 43 62  1  0  0  0  0
 42 63  1  0  0  0  0
 44 63  1  0  0  0  0
 42 64  1  0  0  0  0
 45 64  1  0  0  0  0
 44 65  1  0  0  0  0
 46 65  1  0  0  0  0
 45 66  1  0  0  0  0
 46 66  1  0  0  0  0
 47 67  2  0  0  0  0
 48 68  1  0  0  0  0
 49 68  1  0  0  0  0
 43 69  1  0  0  0  0
 49 69  1  0  0  0  0
 48 70  1  0  0  0  0
 50 70  1  0  0  0  0
 48 71  1  0  0  0  0
 51 71  1  0  0  0  0
 50 72  1  0  0  0  0
 52 72  1  0  0  0  0
 51 73  1  0  0  0  0
 52 73  1  0  0  0  0
M  END
