 xtb: 6.7.1pre (5071a88)
          08312620363D

 89101  0     0  0            999 V2000
   -5.5017    2.6755    4.3491 C   0  0  0  0  0  0  0  0  0  0  0  0
   -6.0587    1.5245    5.1826 C   0  0  0  0  0  0  0  0  0  0  0  0
   -5.5460    0.2043    4.7869 N   0  0  0  0  0  0  0  0  0  0  0  0
   -6.1821   -0.8879    5.5464 C   0  0  0  0  0  0  0  0  0  0  0  0
   -7.6438   -1.1026    5.1659 C   0  0  0  0  0  0  0  0  0  0  0  0
   -4.0734    0.0857    4.8427 C   0  0  0  0  0  0  0  0  0  0  0  0
   -3.4005    0.3432    6.2064 C   0  0  0  0  0  0  0  0  0  0  0  0
   -1.9598    0.2023    6.1383 N   0  0  0  0  0  0  0  0  0  0  0  0
   -1.3498   -1.0317    6.1765 C   0  0  0  0  0  0  0  0  0  0  0  0
   -1.9767   -2.0815    6.2761 O   0  0  0  0  0  0  0  0  0  0  0  0
    0.1134   -0.9746    6.1422 C   0  0  0  0  0  0  0  0  0  0  0  0
    0.9387   -1.8203    6.8661 C   0  0  0  0  0  0  0  0  0  0  0  0
    0.6099   -2.9369    7.7919 C   0  0  0  0  0  0  0  0  0  0  0  0
    2.2387   -1.4673    6.6139 N   0  0  0  0  0  0  0  0  0  0  0  0
    2.2984   -0.4227    5.7265 C   0  0  0  0  0  0  0  0  0  0  0  0
    3.5339    0.1408    5.2934 C   0  0  0  0  0  0  0  0  0  0  0  0
    4.7935   -0.1834    5.6310 C   0  0  0  0  0  0  0  0  0  0  0  0
    5.3326   -1.2369    6.5710 C   0  0  0  0  0  0  0  0  0  0  0  0
    4.7129   -2.0387    7.2439 O   0  0  0  0  0  0  0  0  0  0  0  0
    6.7104   -1.1101    6.5205 N   0  0  0  0  0  0  0  0  0  0  0  0
    7.0973   -0.0956    5.6555 C   0  0  0  0  0  0  0  0  0  0  0  0
    8.3916    0.2961    5.3712 C   0  0  0  0  0  0  0  0  0  0  0  0
    8.5557    1.3457    4.4661 C   0  0  0  0  0  0  0  0  0  0  0  0
    7.4364    1.9587    3.8845 C   0  0  0  0  0  0  0  0  0  0  0  0
    7.6230    2.9641    3.0192 F   0  0  0  0  0  0  0  0  0  0  0  0
    6.1353    1.5522    4.1810 C   0  0  0  0  0  0  0  0  0  0  0  0
    5.9751    0.5111    5.0794 C   0  0  0  0  0  0  0  0  0  0  0  0
    0.9836   -0.1100    5.3829 C   0  0  0  0  0  0  0  0  0  0  0  0
    0.5565    0.9146    4.3842 C   0  0  0  0  0  0  0  0  0  0  0  0
   -5.6358    2.4889    3.2784 H   0  0  0  0  0  0  0  0  0  0  0  0
   -6.0304    3.6025    4.5954 H   0  0  0  0  0  0  0  0  0  0  0  0
   -4.4387    2.8455    4.5442 H   0  0  0  0  0  0  0  0  0  0  0  0
   -5.8751    1.7216    6.2455 H   0  0  0  0  0  0  0  0  0  0  0  0
   -7.1451    1.5488    5.0441 H   0  0  0  0  0  0  0  0  0  0  0  0
   -5.6640   -1.8316    5.3328 H   0  0  0  0  0  0  0  0  0  0  0  0
   -6.1046   -0.7197    6.6273 H   0  0  0  0  0  0  0  0  0  0  0  0
   -7.7565   -1.2238    4.0834 H   0  0  0  0  0  0  0  0  0  0  0  0
   -8.0224   -2.0119    5.6450 H   0  0  0  0  0  0  0  0  0  0  0  0
   -8.2797   -0.2745    5.4918 H   0  0  0  0  0  0  0  0  0  0  0  0
   -3.6323    0.7599    4.0976 H   0  0  0  0  0  0  0  0  0  0  0  0
   -3.7900   -0.9126    4.4826 H   0  0  0  0  0  0  0  0  0  0  0  0
   -3.7789   -0.3503    6.9648 H   0  0  0  0  0  0  0  0  0  0  0  0
   -3.5943    1.3637    6.5503 H   0  0  0  0  0  0  0  0  0  0  0  0
   -1.3781    1.0240    6.2182 H   0  0  0  0  0  0  0  0  0  0  0  0
    0.2064   -3.7869    7.2327 H   0  0  0  0  0  0  0  0  0  0  0  0
   -0.1356   -2.6194    8.5279 H   0  0  0  0  0  0  0  0  0  0  0  0
    1.4941   -3.2801    8.3390 H   0  0  0  0  0  0  0  0  0  0  0  0
    3.0407   -1.9299    7.0318 H   0  0  0  0  0  0  0  0  0  0  0  0
    3.4140    0.9565    4.5839 H   0  0  0  0  0  0  0  0  0  0  0  0
    7.3295   -1.6982    7.0577 H   0  0  0  0  0  0  0  0  0  0  0  0
    9.2489   -0.1859    5.8269 H   0  0  0  0  0  0  0  0  0  0  0  0
    9.5492    1.6980    4.2028 H   0  0  0  0  0  0  0  0  0  0  0  0
    5.2981    2.0514    3.7094 H   0  0  0  0  0  0  0  0  0  0  0  0
    0.4342    1.8879    4.8695 H   0  0  0  0  0  0  0  0  0  0  0  0
   -0.3902    0.6374    3.9102 H   0  0  0  0  0  0  0  0  0  0  0  0
    1.2924    1.0201    3.5810 H   0  0  0  0  0  0  0  0  0  0  0  0
   -3.0000   -2.6000    1.2500 Ti  0  0  0  0  0  0  0  0  0  0  0  0
    0.0000   -2.6000    1.2500 Ti  0  0  0  0  0  0  0  0  0  0  0  0
    3.0000   -2.6000    1.2500 Ti  0  0  0  0  0  0  0  0  0  0  0  0
   -1.5000    0.0000    1.2500 Ti  0  0  0  0  0  0  0  0  0  0  0  0
    1.5000    0.0000    1.2500 Ti  0  0  0  0  0  0  0  0  0  0  0  0
    0.0000    2.6000    1.2500 Ti  0  0  0  0  0  0  0  0  0  0  0  0
   -3.0000   -2.6000   -1.2500 Ti  0  0  0  0  0  0  0  0  0  0  0  0
    0.0000   -2.6000   -1.2500 Ti  0  0  0  0  0  0  0  0  0  0  0  0
    3.0000   -2.6000   -1.2500 Ti  0  0  0  0  0  0  0  0  0  0  0  0
   -1.5000    0.0000   -1.2500 Ti  0  0  0  0  0  0  0  0  0  0  0  0
    1.5000    0.0000   -1.2500 Ti  0  0  0  0  0  0  0  0  0  0  0  0
    0.0000    2.6000   -1.2500 Ti  0  0  0  0  0  0  0  0  0  0  0  0
   -1.5000   -1.3000    0.0000 C   0  0  0  0  0  0  0  0  0  0  0  0
    1.5000   -1.3000    0.0000 C   0  0  0  0  0  0  0  0  0  0  0  0
    0.0000    1.3000    0.0000 C   0  0  0  0  0  0  0  0  0  0  0  0
   -3.0000    0.0000    0.0000 C   0  0  0  0  0  0  0  0  0  0  0  0
    3.0000    0.0000    0.0000 C   0  0  0  0  0  0  0  0  0  0  0  0
   -1.5000    2.6000    0.0000 C   0  0  0  0  0  0  0  0  0  0  0  0
    1.5000    2.6000    0.0000 C   0  0  0  0  0  0  0  0  0  0  0  0
   -3.0000   -2.6000    2.4500 O   0  0  0  0  0  0  0  0  0  0  0  0
    0.0000   -2.6000    2.4500 O   0  0  0  0  0  0  0  0  0  0  0  0
    3.0000   -2.6000    2.4500 O   0  0  0  0  0  0  0  0  0  0  0  0
   -1.5000    0.0000    2.4500 O   0  0  0  0  0  0  0  0  0  0  0  0
    1.5000    0.0000    2.4500 O   0  0  0  0  0  0  0  0  0  0  0  0
   -1.5000    2.6000    2.4500 O   0  0  0  0  0  0  0  0  0  0  0  0
    1.5000    2.6000    2.4500 O   0  0  0  0  0  0  0  0  0  0  0  0
   -3.0000   -2.6000   -2.4500 O   0  0  0  0  0  0  0  0  0  0  0  0
    0.0000   -2.6000   -2.4500 O   0  0  0  0  0  0  0  0  0  0  0  0
    3.0000   -2.6000   -2.4500 O   0  0  0  0  0  0  0  0  0  0  0  0
   -1.5000    0.0000   -2.4500 O   0  0  0  0  0  0  0  0  0  0  0  0
    1.5000    0.0000   -2.4500 O   0  0  0  0  0  0  0  0  0  0  0  0
   -1.5000    2.6000   -2.4500 O   0  0  0  0  0  0  0  0  0  0  0  0
    1.5000    2.6000   -2.4500 O   0  0  0  0  0  0  0  0  0  0  0  0
  1  2  1  0  0  0  0
  2  3  1  0  0  0  0
  3  4  1  0  0  0  0
  4  5  1  0  0  0  0
  3  6  1  0  0  0  0
  6  7  1  0  0  0  0
  7  8  1  0  0  0  0
  8  9  1  0  0  0  0
  9 10  2  0  0  0  0
  9 11  1  0  0  0  0
 11 12  4  0  0  0  0
 12 13  1  0  0  0  0
 12 14  4  0  0  0  0
 14 15  1  0  0  0  0
 15 16  4  0  0  0  0
 16 17  2  0  0  0  0
 17 18  1  0  0  0  0
 18 19  2  0  0  0  0
 18 20  1  0  0  0  0
 20 21  1  0  0  0  0
 21 22  4  0  0  0  0
 22 23  4  0  0  0  0
 23 24  4  0  0  0  0
 24 25  1  0  0  0  0
 24 26  4  0  0  0  0
 17 27  1  0  0  0  0
 21 27  4  0  0  0  0
 26 27  4  0  0  0  0
 11 28  4  0  0  0  0
 15 28  4  0  0  0  0
 28 29  1  0  0  0  0
  1 30  1  0  0  0  0
  1 31  1  0  0  0  0
  1 32  1  0  0  0  0
  2 33  1  0  0  0  0
  2 34  1  0  0  0  0
  4 35  1  0  0  0  0
  4 36  1  0  0  0  0
  5 37  1  0  0  0  0
  5 38  1  0  0  0  0
  5 39  1  0  0  0  0
  6 40  1  0  0  0  0
  6 41  1  0  0  0  0
  7 42  1  0  0  0  0
  7 43  1  0  0  0  0
  8 44  1  0  0  0  0
 13 45  1  0  0  0  0
 13 46  1  0  0  0  0
 13 47  1  0  0  0  0
 14 48  1  0  0  0  0
 16 49  1  0  0  0  0
 20 50  1  0  0  0  0
 22 51  1  0  0  0  0
 23 52  1  0  0  0  0
 26 53  1  0  0  0  0
 29 54  1  0  0  0  0
 29 55  1  0  0  0  0
 29 56  1  0  0  0  0
 57 58  1  0  0  0  0
 58 59  1  0  0  0  0
 57 63  1  0  0  0  0
 58 64  1  0  0  0  0
 63 64  1  0  0  0  0
 59 65  1  0  0  0  0
 64 65  1  0  0  0  0
 60 69  1  0  0  0  0
 66 69  1  0  0  0  0
 61 70  1  0  0  0  0
 67 70  1  0  0  0  0
 62 71  1  0  0  0  0
 68 71  1  0  0  0  0
 60 72  1  0  0  0  0
 66 72  1  0  0  0  0
 69 72  1  0  0  0  0
 61 73  1  0  0  0  0
 67 73  1  0  0  0  0
 70 73  1  0  0  0  0
 62 74  1  0  0  0  0
 68 74  1  0  0  0  0
 71 74  1  0  0  0  0
 62 75  1  0  0  0  0
 68 75  1  0  0  0  0
 71 75  1  0  0  0  0
 57 76  2  0  0  0  0
 58 77  2  0  0  0  0
 59 78  2  0  0  0  0
 60 79  2  0  0  0  0
 61 80  2  0  0  0  0
 62 81  1  0  0  0  0
 74 81  1  0  0  0  0
 62 82  1  0  0  0  0
 75 82  1  0  0  0  0
 63 83  2  0  0  0  0
 64 84  2  0  0  0  0
 65 85  2  0  0  0  0
 66 86  2  0  0  0  0
 67 87  2  0  0  0  0
 68 88  1  0  0  0  0
 74 88  1  0  0  0  0
 68 89  1  0  0  0  0
 75 89  1  0  0  0  0
M  END
