 xtb: 6.7.1pre (5071a88)
          08312621553D

 89 99  0     0  0            999 V2000
   -5.1220    2.1514    9.1735 C   0  0  0  0  0  0  0  0  0  0  0  0
   -5.5122    0.8327    9.8339 C   0  0  0  0  0  0  0  0  0  0  0  0
   -4.4199    0.2850   10.6588 N   0  0  0  0  0  0  0  0  0  0  0  0
   -4.3229    0.9835   11.9532 C   0  0  0  0  0  0  0  0  0  0  0  0
   -2.9397    0.8189   12.5782 C   0  0  0  0  0  0  0  0  0  0  0  0
   -4.6110   -1.1755   10.8615 C   0  0  0  0  0  0  0  0  0  0  0  0
   -4.0481   -1.9859    9.6771 C   0  0  0  0  0  0  0  0  0  0  0  0
   -2.6600   -1.6477    9.4239 N   0  0  0  0  0  0  0  0  0  0  0  0
   -1.6553   -2.1950   10.1929 C   0  0  0  0  0  0  0  0  0  0  0  0
   -1.8455   -3.1332   10.9622 O   0  0  0  0  0  0  0  0  0  0  0  0
   -0.3557   -1.5213   10.0761 C   0  0  0  0  0  0  0  0  0  0  0  0
    0.1630   -0.8666    8.9659 C   0  0  0  0  0  0  0  0  0  0  0  0
   -0.3598   -0.6646    7.5880 C   0  0  0  0  0  0  0  0  0  0  0  0
    1.4014   -0.3802    9.3074 N   0  0  0  0  0  0  0  0  0  0  0  0
    1.7352   -0.7286   10.5905 C   0  0  0  0  0  0  0  0  0  0  0  0
    2.9876   -0.3807   11.1738 C   0  0  0  0  0  0  0  0  0  0  0  0
    3.9994    0.3458   10.6698 C   0  0  0  0  0  0  0  0  0  0  0  0
    4.1624    1.0338    9.3341 C   0  0  0  0  0  0  0  0  0  0  0  0
    3.3845    1.0664    8.3993 O   0  0  0  0  0  0  0  0  0  0  0  0
    5.4089    1.6355    9.3759 N   0  0  0  0  0  0  0  0  0  0  0  0
    6.0480    1.3999   10.5856 C   0  0  0  0  0  0  0  0  0  0  0  0
    7.3001    1.8506   10.9577 C   0  0  0  0  0  0  0  0  0  0  0  0
    7.7541    1.4945   12.2285 C   0  0  0  0  0  0  0  0  0  0  0  0
    6.9524    0.7113   13.0715 C   0  0  0  0  0  0  0  0  0  0  0  0
    7.4135    0.3847   14.2862 F   0  0  0  0  0  0  0  0  0  0  0  0
    5.6901    0.2632   12.6821 C   0  0  0  0  0  0  0  0  0  0  0  0
    5.2420    0.6179   11.4212 C   0  0  0  0  0  0  0  0  0  0  0  0
    0.6537   -1.4392   11.1033 C   0  0  0  0  0  0  0  0  0  0  0  0
    0.5254   -2.0273   12.4702 C   0  0  0  0  0  0  0  0  0  0  0  0
   -4.9717    2.9533    9.9015 H   0  0  0  0  0  0  0  0  0  0  0  0
   -4.2024    2.0400    8.5888 H   0  0  0  0  0  0  0  0  0  0  0  0
   -5.9149    2.4734    8.4901 H   0  0  0  0  0  0  0  0  0  0  0  0
   -5.7560    0.1412    9.0190 H   0  0  0  0  0  0  0  0  0  0  0  0
   -6.4299    0.9576   10.4223 H   0  0  0  0  0  0  0  0  0  0  0  0
   -4.4739    2.0606   11.8243 H   0  0  0  0  0  0  0  0  0  0  0  0
   -5.1004    0.6423   12.6482 H   0  0  0  0  0  0  0  0  0  0  0  0
   -2.1562    1.1558   11.8907 H   0  0  0  0  0  0  0  0  0  0  0  0
   -2.8685    1.4246   13.4878 H   0  0  0  0  0  0  0  0  0  0  0  0
   -2.7278   -0.2170   12.8570 H   0  0  0  0  0  0  0  0  0  0  0  0
   -4.0824   -1.5131   11.7600 H   0  0  0  0  0  0  0  0  0  0  0  0
   -5.6690   -1.4189   11.0221 H   0  0  0  0  0  0  0  0  0  0  0  0
   -4.1309   -3.0577    9.8876 H   0  0  0  0  0  0  0  0  0  0  0  0
   -4.6014   -1.7799    8.7559 H   0  0  0  0  0  0  0  0  0  0  0  0
   -2.5036   -0.6885    9.1424 H   0  0  0  0  0  0  0  0  0  0  0  0
    0.4501   -0.4542    6.8812 H   0  0  0  0  0  0  0  0  0  0  0  0
   -0.8795   -1.5594    7.2318 H   0  0  0  0  0  0  0  0  0  0  0  0
   -1.0557    0.1798    7.5639 H   0  0  0  0  0  0  0  0  0  0  0  0
    1.9937    0.1472    8.6732 H   0  0  0  0  0  0  0  0  0  0  0  0
    3.1224   -0.7739   12.1787 H   0  0  0  0  0  0  0  0  0  0  0  0
    5.7805    2.1687    8.6045 H   0  0  0  0  0  0  0  0  0  0  0  0
    7.9108    2.4552   10.2970 H   0  0  0  0  0  0  0  0  0  0  0  0
    8.7305    1.8189   12.5775 H   0  0  0  0  0  0  0  0  0  0  0  0
    5.1022   -0.3403   13.3626 H   0  0  0  0  0  0  0  0  0  0  0  0
   -0.4658   -1.8241   12.8884 H   0  0  0  0  0  0  0  0  0  0  0  0
    0.6731   -3.1111   12.4296 H   0  0  0  0  0  0  0  0  0  0  0  0
    1.2574   -1.6098   13.1672 H   0  0  0  0  0  0  0  0  0  0  0  0
   -2.1419   -3.0088    2.1197 Ti  0  0  0  0  0  0  0  0  0  0  0  0
    0.2890   -1.6948    1.4324 Ti  0  0  0  0  0  0  0  0  0  0  0  0
    1.9031   -3.0677   -0.7293 Ti  0  0  0  0  0  0  0  0  0  0  0  0
   -2.5215   -0.2519    1.3037 Ti  0  0  0  0  0  0  0  0  0  0  0  0
    2.1420    0.4995    2.2044 Ti  0  0  0  0  0  0  0  0  0  0  0  0
   -0.6814    0.1896    3.6812 Ti  0  0  0  0  0  0  0  0  0  0  0  0
   -2.0368   -3.0777   -1.2005 Ti  0  0  0  0  0  0  0  0  0  0  0  0
   -0.6053   -0.7709   -2.0351 Ti  0  0  0  0  0  0  0  0  0  0  0  0
    1.9455   -1.5873   -3.4124 Ti  0  0  0  0  0  0  0  0  0  0  0  0
   -1.8782    1.7466   -1.2400 Ti  0  0  0  0  0  0  0  0  0  0  0  0
    2.4125    0.4542   -0.7742 Ti  0  0  0  0  0  0  0  0  0  0  0  0
    0.8177    1.8385   -2.9400 Ti  0  0  0  0  0  0  0  0  0  0  0  0
   -3.6784    1.2814    0.6007 C   0  0  0  0  0  0  0  0  0  0  0  0
    4.1282    0.4828    0.3873 C   0  0  0  0  0  0  0  0  0  0  0  0
    0.4555    2.2672    0.3497 C   0  0  0  0  0  0  0  0  0  0  0  0
   -3.6667    2.1188   -0.3139 C   0  0  0  0  0  0  0  0  0  0  0  0
    4.1160    0.6322    1.6214 C   0  0  0  0  0  0  0  0  0  0  0  0
   -0.6352    2.7410   -0.1189 C   0  0  0  0  0  0  0  0  0  0  0  0
    1.6301    1.7810    0.7342 C   0  0  0  0  0  0  0  0  0  0  0  0
   -3.0935   -1.9569    1.0379 O   0  0  0  0  0  0  0  0  0  0  0  0
   -0.4872   -2.6058    2.7012 O   0  0  0  0  0  0  0  0  0  0  0  0
    0.3141   -2.8889    0.1450 O   0  0  0  0  0  0  0  0  0  0  0  0
   -0.8008   -0.4359    0.9712 O   0  0  0  0  0  0  0  0  0  0  0  0
    1.9029   -1.1583    1.4694 O   0  0  0  0  0  0  0  0  0  0  0  0
   -2.3227   -0.1139    3.0248 O   0  0  0  0  0  0  0  0  0  0  0  0
    1.0138    0.4416    3.5688 O   0  0  0  0  0  0  0  0  0  0  0  0
   -1.7720   -4.5879   -1.6528 O   0  0  0  0  0  0  0  0  0  0  0  0
    0.1906   -1.1892   -3.5340 O   0  0  0  0  0  0  0  0  0  0  0  0
    2.8314   -2.1702   -1.9180 O   0  0  0  0  0  0  0  0  0  0  0  0
   -2.0546   -0.2244   -1.3375 O   0  0  0  0  0  0  0  0  0  0  0  0
    0.7685   -0.3906   -1.0637 O   0  0  0  0  0  0  0  0  0  0  0  0
   -0.9000    1.6493   -2.8186 O   0  0  0  0  0  0  0  0  0  0  0  0
    2.4153    1.3575   -2.2641 O   0  0  0  0  0  0  0  0  0  0  0  0
  1  2  1  0  0  0  0
  2  3  1  0  0  0  0
  3  4  1  0  0  0  0
  4  5  1  0  0  0  0
  3  6  1  0  0  0  0
  6  7  1  0  0  0  0
  7  8  1  0  0  0  0
  8  9  1  0  0  0  0
  9 10  2  0  0  0  0
  9 11  1  0  0  0  0
 11 12  4  0  0  0  0
 12 13  1  0  0  0  0
 12 14  4  0  0  0  0
 14 15  1  0  0  0  0
 15 16  4  0  0  0  0
 16 17  2  0  0  0  0
 17 18  1  0  0  0  0
 18 19  2  0  0  0  0
 18 20  1  0  0  0  0
 20 21  1  0  0  0  0
 21 22  4  0  0  0  0
 22 23  4  0  0  0  0
 23 24  4  0  0  0  0
 24 25  1  0  0  0  0
 24 26  4  0  0  0  0
 17 27  1  0  0  0  0
 21 27  4  0  0  0  0
 26 27  4  0  0  0  0
 11 28  4  0  0  0  0
 15 28  4  0  0  0  0
 28 29  1  0  0  0  0
  1 30  1  0  0  0  0
  1 31  1  0  0  0  0
  1 32  1  0  0  0  0
  2 33  1  0  0  0  0
  2 34  1  0  0  0  0
  4 35  1  0  0  0  0
  4 36  1  0  0  0  0
  5 37  1  0  0  0  0
  5 38  1  0  0  0  0
  5 39  1  0  0  0  0
  6 40  1  0  0  0  0
  6 41  1  0  0  0  0
  7 42  1  0  0  0  0
  7 43  1  0  0  0  0
  8 44  1  0  0  0  0
 13 45  1  0  0  0  0
 13 46  1  0  0  0  0
 13 47  1  0  0  0  0
 14 48  1  0  0  0  0
 16 49  1  0  0  0  0
 20 50  1  0  0  0  0
 22 51  1  0  0  0  0
 23 52  1  0  0  0  0
 26 53  1  0  0  0  0
 29 54  1  0  0  0  0
 29 55  1  0  0  0  0
 29 56  1  0  0  0  0
 57 63  1  0  0  0  0
 63 64  1  0  0  0  0
 59 65  1  0  0  0  0
 60 69  1  0  0  0  0
 67 70  1  0  0  0  0
 66 72  1  0  0  0  0
 69 72  3  0  0  0  0
 61 73  1  0  0  0  0
 70 73  3  0  0  0  0
 66 74  1  0  0  0  0
 71 74  2  0  0  0  0
 61 75  1  0  0  0  0
 67 75  1  0  0  0  0
 71 75  2  0  0  0  0
 57 76  1  0  0  0  0
 60 76  1  0  0  0  0
 57 77  1  0  0  0  0
 58 77  1  0  0  0  0
 58 78  1  0  0  0  0
 59 78  1  0  0  0  0
 58 79  1  0  0  0  0
 60 79  1  0  0  0  0
 58 80  1  0  0  0  0
 61 80  1  0  0  0  0
 60 81  1  0  0  0  0
 62 81  1  0  0  0  0
 61 82  1  0  0  0  0
 62 82  1  0  0  0  0
 63 83  2  0  0  0  0
 64 84  1  0  0  0  0
 65 84  1  0  0  0  0
 59 85  1  0  0  0  0
 65 85  1  0  0  0  0
 64 86  1  0  0  0  0
 66 86  1  0  0  0  0
 64 87  1  0  0  0  0
 67 87  1  0  0  0  0
 66 88  1  0  0  0  0
 68 88  1  0  0  0  0
 67 89  1  0  0  0  0
 68 89  1  0  0  0  0
M  END
