 xtb: 6.7.1pre (5071a88)
          08312621193D

 89 99  0     0  0            999 V2000
   -5.5017    2.6755    8.5111 C   0  0  0  0  0  0  0  0  0  0  0  0
   -6.0587    1.5245    9.3447 C   0  0  0  0  0  0  0  0  0  0  0  0
   -5.5460    0.2043    8.9489 N   0  0  0  0  0  0  0  0  0  0  0  0
   -6.1821   -0.8879    9.7084 C   0  0  0  0  0  0  0  0  0  0  0  0
   -7.6438   -1.1026    9.3280 C   0  0  0  0  0  0  0  0  0  0  0  0
   -4.0734    0.0857    9.0048 C   0  0  0  0  0  0  0  0  0  0  0  0
   -3.4005    0.3432   10.3685 C   0  0  0  0  0  0  0  0  0  0  0  0
   -1.9598    0.2023   10.3004 N   0  0  0  0  0  0  0  0  0  0  0  0
   -1.3498   -1.0317   10.3386 C   0  0  0  0  0  0  0  0  0  0  0  0
   -1.9767   -2.0815   10.4382 O   0  0  0  0  0  0  0  0  0  0  0  0
    0.1134   -0.9746   10.3043 C   0  0  0  0  0  0  0  0  0  0  0  0
    0.9387   -1.8203   11.0282 C   0  0  0  0  0  0  0  0  0  0  0  0
    0.6099   -2.9369   11.9539 C   0  0  0  0  0  0  0  0  0  0  0  0
    2.2387   -1.4673   10.7759 N   0  0  0  0  0  0  0  0  0  0  0  0
    2.2984   -0.4227    9.8885 C   0  0  0  0  0  0  0  0  0  0  0  0
    3.5339    0.1408    9.4554 C   0  0  0  0  0  0  0  0  0  0  0  0
    4.7935   -0.1834    9.7931 C   0  0  0  0  0  0  0  0  0  0  0  0
    5.3326   -1.2369   10.7331 C   0  0  0  0  0  0  0  0  0  0  0  0
    4.7129   -2.0387   11.4059 O   0  0  0  0  0  0  0  0  0  0  0  0
    6.7104   -1.1101   10.6826 N   0  0  0  0  0  0  0  0  0  0  0  0
    7.0973   -0.0956    9.8175 C   0  0  0  0  0  0  0  0  0  0  0  0
    8.3916    0.2961    9.5332 C   0  0  0  0  0  0  0  0  0  0  0  0
    8.5557    1.3457    8.6281 C   0  0  0  0  0  0  0  0  0  0  0  0
    7.4364    1.9587    8.0466 C   0  0  0  0  0  0  0  0  0  0  0  0
    7.6230    2.9641    7.1812 F   0  0  0  0  0  0  0  0  0  0  0  0
    6.1353    1.5522    8.3431 C   0  0  0  0  0  0  0  0  0  0  0  0
    5.9751    0.5111    9.2415 C   0  0  0  0  0  0  0  0  0  0  0  0
    0.9836   -0.1100    9.5449 C   0  0  0  0  0  0  0  0  0  0  0  0
    0.5565    0.9146    8.5463 C   0  0  0  0  0  0  0  0  0  0  0  0
   -5.6358    2.4889    7.4405 H   0  0  0  0  0  0  0  0  0  0  0  0
   -6.0304    3.6025    8.7574 H   0  0  0  0  0  0  0  0  0  0  0  0
   -4.4387    2.8455    8.7063 H   0  0  0  0  0  0  0  0  0  0  0  0
   -5.8751    1.7216   10.4076 H   0  0  0  0  0  0  0  0  0  0  0  0
   -7.1451    1.5488    9.2062 H   0  0  0  0  0  0  0  0  0  0  0  0
   -5.6640   -1.8316    9.4948 H   0  0  0  0  0  0  0  0  0  0  0  0
   -6.1046   -0.7197   10.7894 H   0  0  0  0  0  0  0  0  0  0  0  0
   -7.7565   -1.2238    8.2455 H   0  0  0  0  0  0  0  0  0  0  0  0
   -8.0224   -2.0119    9.8070 H   0  0  0  0  0  0  0  0  0  0  0  0
   -8.2797   -0.2745    9.6539 H   0  0  0  0  0  0  0  0  0  0  0  0
   -3.6323    0.7599    8.2596 H   0  0  0  0  0  0  0  0  0  0  0  0
   -3.7900   -0.9126    8.6447 H   0  0  0  0  0  0  0  0  0  0  0  0
   -3.7789   -0.3503   11.1268 H   0  0  0  0  0  0  0  0  0  0  0  0
   -3.5943    1.3637   10.7124 H   0  0  0  0  0  0  0  0  0  0  0  0
   -1.3781    1.0240   10.3803 H   0  0  0  0  0  0  0  0  0  0  0  0
    0.2064   -3.7869   11.3947 H   0  0  0  0  0  0  0  0  0  0  0  0
   -0.1356   -2.6194   12.6900 H   0  0  0  0  0  0  0  0  0  0  0  0
    1.4941   -3.2801   12.5011 H   0  0  0  0  0  0  0  0  0  0  0  0
    3.0407   -1.9299   11.1939 H   0  0  0  0  0  0  0  0  0  0  0  0
    3.4140    0.9565    8.7460 H   0  0  0  0  0  0  0  0  0  0  0  0
    7.3295   -1.6982   11.2198 H   0  0  0  0  0  0  0  0  0  0  0  0
    9.2489   -0.1859    9.9890 H   0  0  0  0  0  0  0  0  0  0  0  0
    9.5492    1.6980    8.3649 H   0  0  0  0  0  0  0  0  0  0  0  0
    5.2981    2.0514    7.8715 H   0  0  0  0  0  0  0  0  0  0  0  0
    0.4342    1.8879    9.0315 H   0  0  0  0  0  0  0  0  0  0  0  0
   -0.3902    0.6374    8.0723 H   0  0  0  0  0  0  0  0  0  0  0  0
    1.2924    1.0201    7.7431 H   0  0  0  0  0  0  0  0  0  0  0  0
   -2.1419   -3.0088    2.1197 Ti  0  0  0  0  0  0  0  0  0  0  0  0
    0.2890   -1.6948    1.4324 Ti  0  0  0  0  0  0  0  0  0  0  0  0
    1.9031   -3.0677   -0.7293 Ti  0  0  0  0  0  0  0  0  0  0  0  0
   -2.5215   -0.2519    1.3037 Ti  0  0  0  0  0  0  0  0  0  0  0  0
    2.1420    0.4995    2.2044 Ti  0  0  0  0  0  0  0  0  0  0  0  0
   -0.6814    0.1896    3.6812 Ti  0  0  0  0  0  0  0  0  0  0  0  0
   -2.0368   -3.0777   -1.2005 Ti  0  0  0  0  0  0  0  0  0  0  0  0
   -0.6053   -0.7709   -2.0351 Ti  0  0  0  0  0  0  0  0  0  0  0  0
    1.9455   -1.5873   -3.4124 Ti  0  0  0  0  0  0  0  0  0  0  0  0
   -1.8782    1.7466   -1.2400 Ti  0  0  0  0  0  0  0  0  0  0  0  0
    2.4125    0.4542   -0.7742 Ti  0  0  0  0  0  0  0  0  0  0  0  0
    0.8177    1.8385   -2.9400 Ti  0  0  0  0  0  0  0  0  0  0  0  0
   -3.6784    1.2814    0.6007 C   0  0  0  0  0  0  0  0  0  0  0  0
    4.1282    0.4828    0.3873 C   0  0  0  0  0  0  0  0  0  0  0  0
    0.4555    2.2672    0.3497 C   0  0  0  0  0  0  0  0  0  0  0  0
   -3.6667    2.1188   -0.3139 C   0  0  0  0  0  0  0  0  0  0  0  0
    4.1160    0.6322    1.6214 C   0  0  0  0  0  0  0  0  0  0  0  0
   -0.6352    2.7410   -0.1189 C   0  0  0  0  0  0  0  0  0  0  0  0
    1.6301    1.7810    0.7342 C   0  0  0  0  0  0  0  0  0  0  0  0
   -3.0935   -1.9569    1.0379 O   0  0  0  0  0  0  0  0  0  0  0  0
   -0.4872   -2.6058    2.7012 O   0  0  0  0  0  0  0  0  0  0  0  0
    0.3141   -2.8889    0.1450 O   0  0  0  0  0  0  0  0  0  0  0  0
   -0.8008   -0.4359    0.9712 O   0  0  0  0  0  0  0  0  0  0  0  0
    1.9029   -1.1583    1.4694 O   0  0  0  0  0  0  0  0  0  0  0  0
   -2.3227   -0.1139    3.0248 O   0  0  0  0  0  0  0  0  0  0  0  0
    1.0138    0.4416    3.5688 O   0  0  0  0  0  0  0  0  0  0  0  0
   -1.7720   -4.5879   -1.6528 O   0  0  0  0  0  0  0  0  0  0  0  0
    0.1906   -1.1892   -3.5340 O   0  0  0  0  0  0  0  0  0  0  0  0
    2.8314   -2.1702   -1.9180 O   0  0  0  0  0  0  0  0  0  0  0  0
   -2.0546   -0.2244   -1.3375 O   0  0  0  0  0  0  0  0  0  0  0  0
    0.7685   -0.3906   -1.0637 O   0  0  0  0  0  0  0  0  0  0  0  0
   -0.9000    1.6493   -2.8186 O   0  0  0  0  0  0  0  0  0  0  0  0
    2.4153    1.3575   -2.2641 O   0  0  0  0  0  0  0  0  0  0  0  0
  1  2  1  0  0  0  0
  2  3  1  0  0  0  0
  3  4  1  0  0  0  0
  4  5  1  0  0  0  0
  3  6  1  0  0  0  0
  6  7  1  0  0  0  0
  7  8  1  0  0  0  0
  8  9  4  0  0  0  0
  9 10  2  0  0  0  0
  9 11  1  0  0  0  0
 11 12  4  0  0  0  0
 12 13  1  0  0  0  0
 12 14  4  0  0  0  0
 14 15  1  0  0  0  0
 15 16  4  0  0  0  0
 16 17  2  0  0  0  0
 17 18  1  0  0  0  0
 18 19  2  0  0  0  0
 18 20  1  0  0  0  0
 20 21  1  0  0  0  0
 21 22  4  0  0  0  0
 22 23  4  0  0  0  0
 23 24  4  0  0  0  0
 24 25  1  0  0  0  0
 24 26  4  0  0  0  0
 17 27  1  0  0  0  0
 21 27  4  0  0  0  0
 26 27  4  0  0  0  0
 11 28  4  0  0  0  0
 15 28  4  0  0  0  0
 28 29  1  0  0  0  0
  1 30  1  0  0  0  0
  1 31  1  0  0  0  0
  1 32  1  0  0  0  0
  2 33  1  0  0  0  0
  2 34  1  0  0  0  0
  4 35  1  0  0  0  0
  4 36  1  0  0  0  0
  5 37  1  0  0  0  0
  5 38  1  0  0  0  0
  5 39  1  0  0  0  0
  6 40  1  0  0  0  0
  6 41  1  0  0  0  0
  7 42  1  0  0  0  0
  7 43  1  0  0  0  0
  8 44  1  0  0  0  0
 13 45  1  0  0  0  0
 13 46  1  0  0  0  0
 13 47  1  0  0  0  0
 14 48  1  0  0  0  0
 16 49  1  0  0  0  0
 20 50  1  0  0  0  0
 22 51  1  0  0  0  0
 23 52  1  0  0  0  0
 26 53  1  0  0  0  0
 29 54  1  0  0  0  0
 29 55  1  0  0  0  0
 29 56  1  0  0  0  0
 57 63  1  0  0  0  0
 63 64  1  0  0  0  0
 59 65  1  0  0  0  0
 60 69  1  0  0  0  0
 67 70  1  0  0  0  0
 66 72  1  0  0  0  0
 69 72  3  0  0  0  0
 61 73  1  0  0  0  0
 70 73  3  0  0  0  0
 66 74  1  0  0  0  0
 71 74  2  0  0  0  0
 61 75  1  0  0  0  0
 67 75  1  0  0  0  0
 71 75  2  0  0  0  0
 57 76  1  0  0  0  0
 60 76  1  0  0  0  0
 57 77  1  0  0  0  0
 58 77  1  0  0  0  0
 58 78  1  0  0  0  0
 59 78  1  0  0  0  0
 58 79  1  0  0  0  0
 60 79  1  0  0  0  0
 58 80  1  0  0  0  0
 61 80  1  0  0  0  0
 60 81  1  0  0  0  0
 62 81  1  0  0  0  0
 61 82  1  0  0  0  0
 62 82  1  0  0  0  0
 63 83  2  0  0  0  0
 64 84  1  0  0  0  0
 65 84  1  0  0  0  0
 59 85  1  0  0  0  0
 65 85  1  0  0  0  0
 64 86  1  0  0  0  0
 66 86  1  0  0  0  0
 64 87  1  0  0  0  0
 67 87  1  0  0  0  0
 66 88  1  0  0  0  0
 68 88  1  0  0  0  0
 67 89  1  0  0  0  0
 68 89  1  0  0  0  0
M  END
