 xtb: 6.7.1pre (5071a88)
          08312620313D

 64 67  0     0  0            999 V2000
    9.4533    3.9373    1.2074 C   0  0  0  0  0  0  0  0  0  0  0  0
    8.8087    2.2924    1.0113 S   0  0  0  0  0  0  0  0  0  0  0  0
    8.7618    2.0040   -0.4090 O   0  0  0  0  0  0  0  0  0  0  0  0
    9.5534    1.4364    1.9154 O   0  0  0  0  0  0  0  0  0  0  0  0
    7.1386    2.4071    1.6328 C   0  0  0  0  0  0  0  0  0  0  0  0
    6.2229    3.1553    0.6749 C   0  0  0  0  0  0  0  0  0  0  0  0
    4.8872    3.3014    1.2653 N   0  0  0  0  0  0  0  0  0  0  0  0
    3.9262    3.9182    0.3421 C   0  0  0  0  0  0  0  0  0  0  0  0
    3.4644    2.9815   -0.7178 C   0  0  0  0  0  0  0  0  0  0  0  0
    3.8020    2.8045   -2.0381 C   0  0  0  0  0  0  0  0  0  0  0  0
    3.0002    1.7364   -2.5070 C   0  0  0  0  0  0  0  0  0  0  0  0
    2.1922    1.3020   -1.4586 C   0  0  0  0  0  0  0  0  0  0  0  0
    1.2204    0.2605   -1.3916 C   0  0  0  0  0  0  0  0  0  0  0  0
    0.7395   -0.3542   -2.4878 C   0  0  0  0  0  0  0  0  0  0  0  0
   -0.3294   -1.3364   -2.4885 C   0  0  0  0  0  0  0  0  0  0  0  0
   -0.3478   -2.4953   -1.7903 C   0  0  0  0  0  0  0  0  0  0  0  0
   -1.4154   -3.3705   -1.9161 N   0  0  0  0  0  0  0  0  0  0  0  0
   -2.7592   -3.1083   -1.5578 C   0  0  0  0  0  0  0  0  0  0  0  0
   -3.1817   -1.9188   -0.9496 C   0  0  0  0  0  0  0  0  0  0  0  0
   -4.5281   -1.7101   -0.6381 C   0  0  0  0  0  0  0  0  0  0  0  0
   -5.4691   -2.6974   -0.9211 C   0  0  0  0  0  0  0  0  0  0  0  0
   -6.7742   -2.4254   -0.6100 O   0  0  0  0  0  0  0  0  0  0  0  0
   -7.1991   -3.1166    0.5718 C   0  0  0  0  0  0  0  0  0  0  0  0
   -7.3593   -2.1255    1.7003 C   0  0  0  0  0  0  0  0  0  0  0  0
   -6.3342   -2.0177    2.6612 C   0  0  0  0  0  0  0  0  0  0  0  0
   -6.4232   -1.0992    3.7097 C   0  0  0  0  0  0  0  0  0  0  0  0
   -7.5359   -0.2700    3.8109 C   0  0  0  0  0  0  0  0  0  0  0  0
   -8.5503   -0.3616    2.8623 C   0  0  0  0  0  0  0  0  0  0  0  0
   -9.6093    0.4538    2.9844 F   0  0  0  0  0  0  0  0  0  0  0  0
   -8.4729   -1.2762    1.8078 C   0  0  0  0  0  0  0  0  0  0  0  0
   -9.7678   -1.3274    0.6642 Cl  0  0  0  0  0  0  0  0  0  0  0  0
   -5.0730   -3.8749   -1.5592 C   0  0  0  0  0  0  0  0  0  0  0  0
   -6.2119   -5.0968   -1.9943 Cl  0  0  0  0  0  0  0  0  0  0  0  0
   -3.7251   -4.0789   -1.8672 C   0  0  0  0  0  0  0  0  0  0  0  0
    0.7684   -2.9101   -1.1087 N   0  0  0  0  0  0  0  0  0  0  0  0
    1.1295   -2.2767   -0.0372 C   0  0  0  0  0  0  0  0  0  0  0  0
    0.5066   -1.2015    0.5369 N   0  0  0  0  0  0  0  0  0  0  0  0
    0.6146   -0.0594   -0.0642 C   0  0  0  0  0  0  0  0  0  0  0  0
    2.4950    2.0934   -0.3682 O   0  0  0  0  0  0  0  0  0  0  0  0
    9.3612    4.2304    2.2546 H   0  0  0  0  0  0  0  0  0  0  0  0
    8.9025    4.6217    0.5613 H   0  0  0  0  0  0  0  0  0  0  0  0
   10.5062    3.9241    0.9170 H   0  0  0  0  0  0  0  0  0  0  0  0
    6.7879    1.3790    1.7769 H   0  0  0  0  0  0  0  0  0  0  0  0
    7.1922    2.8889    2.6148 H   0  0  0  0  0  0  0  0  0  0  0  0
    6.1697    2.5985   -0.2667 H   0  0  0  0  0  0  0  0  0  0  0  0
    6.6319    4.1458    0.4486 H   0  0  0  0  0  0  0  0  0  0  0  0
    4.9361    3.8738    2.1068 H   0  0  0  0  0  0  0  0  0  0  0  0
    4.3423    4.8313   -0.1003 H   0  0  0  0  0  0  0  0  0  0  0  0
    3.0507    4.2315    0.9241 H   0  0  0  0  0  0  0  0  0  0  0  0
    4.5439    3.3630   -2.5915 H   0  0  0  0  0  0  0  0  0  0  0  0
    3.0200    1.3185   -3.5043 H   0  0  0  0  0  0  0  0  0  0  0  0
    1.0930   -0.0899   -3.4809 H   0  0  0  0  0  0  0  0  0  0  0  0
   -1.1679   -1.1040   -3.1416 H   0  0  0  0  0  0  0  0  0  0  0  0
   -1.1239   -4.2817   -1.5682 H   0  0  0  0  0  0  0  0  0  0  0  0
   -2.4675   -1.1425   -0.6884 H   0  0  0  0  0  0  0  0  0  0  0  0
   -4.8382   -0.7796   -0.1697 H   0  0  0  0  0  0  0  0  0  0  0  0
   -6.5120   -3.9210    0.8710 H   0  0  0  0  0  0  0  0  0  0  0  0
   -8.1530   -3.6111    0.3563 H   0  0  0  0  0  0  0  0  0  0  0  0
   -5.4502   -2.6510    2.5919 H   0  0  0  0  0  0  0  0  0  0  0  0
   -5.6228   -1.0302    4.4429 H   0  0  0  0  0  0  0  0  0  0  0  0
   -7.6214    0.4501    4.6188 H   0  0  0  0  0  0  0  0  0  0  0  0
   -3.4226   -4.9942   -2.3706 H   0  0  0  0  0  0  0  0  0  0  0  0
    2.0250   -2.6466    0.4918 H   0  0  0  0  0  0  0  0  0  0  0  0
    0.1988    0.8200    0.4592 H   0  0  0  0  0  0  0  0  0  0  0  0
  1  2  1  0  0  0  0
  2  3  2  0  0  0  0
  2  4  2  0  0  0  0
  2  5  1  0  0  0  0
  5  6  1  0  0  0  0
  6  7  1  0  0  0  0
  7  8  1  0  0  0  0
  8  9  1  0  0  0  0
  9 10  2  0  0  0  0
 10 11  4  0  0  0  0
 11 12  4  0  0  0  0
 12 13  1  0  0  0  0
 13 14  2  0  0  0  0
 14 15  1  0  0  0  0
 15 16  2  0  0  0  0
 16 17  1  0  0  0  0
 17 18  1  0  0  0  0
 18 19  4  0  0  0  0
 19 20  4  0  0  0  0
 20 21  4  0  0  0  0
 21 22  1  0  0  0  0
 22 23  1  0  0  0  0
 23 24  1  0  0  0  0
 24 25  4  0  0  0  0
 25 26  4  0  0  0  0
 26 27  4  0  0  0  0
 27 28  4  0  0  0  0
 28 29  1  0  0  0  0
 24 30  4  0  0  0  0
 28 30  4  0  0  0  0
 30 31  1  0  0  0  0
 21 32  4  0  0  0  0
 32 33  1  0  0  0  0
 18 34  4  0  0  0  0
 32 34  4  0  0  0  0
 16 35  1  0  0  0  0
 35 36  2  0  0  0  0
 36 37  1  0  0  0  0
 13 38  1  0  0  0  0
 37 38  2  0  0  0  0
  9 39  1  0  0  0  0
 12 39  1  0  0  0  0
  1 40  1  0  0  0  0
  1 41  1  0  0  0  0
  1 42  1  0  0  0  0
  5 43  1  0  0  0  0
  5 44  1  0  0  0  0
  6 45  1  0  0  0  0
  6 46  1  0  0  0  0
  7 47  1  0  0  0  0
  8 48  1  0  0  0  0
  8 49  1  0  0  0  0
 10 50  1  0  0  0  0
 11 51  1  0  0  0  0
 14 52  1  0  0  0  0
 15 53  1  0  0  0  0
 17 54  1  0  0  0  0
 19 55  1  0  0  0  0
 20 56  1  0  0  0  0
 23 57  1  0  0  0  0
 23 58  1  0  0  0  0
 25 59  1  0  0  0  0
 26 60  1  0  0  0  0
 27 61  1  0  0  0  0
 34 62  1  0  0  0  0
 36 63  1  0  0  0  0
 38 64  1  0  0  0  0
M  END
