 xtb: 6.7.1pre (5071a88)
          08312621553D

 97108  0     0  0            999 V2000
  -10.1484    1.6538   10.1055 C   0  0  0  0  0  0  0  0  0  0  0  0
  -10.0254    1.9245    8.3529 S   0  0  0  0  0  0  0  0  0  0  0  0
  -10.3407    3.3212    8.1104 O   0  0  0  0  0  0  0  0  0  0  0  0
  -10.7800    0.8823    7.6814 O   0  0  0  0  0  0  0  0  0  0  0  0
   -8.3015    1.7062    7.9611 C   0  0  0  0  0  0  0  0  0  0  0  0
   -7.7778    0.3154    8.2869 C   0  0  0  0  0  0  0  0  0  0  0  0
   -7.3077    0.2409    9.6766 N   0  0  0  0  0  0  0  0  0  0  0  0
   -6.9231   -1.1280   10.0577 C   0  0  0  0  0  0  0  0  0  0  0  0
   -5.6625   -1.5736    9.4037 C   0  0  0  0  0  0  0  0  0  0  0  0
   -5.3342   -2.6558    8.6242 C   0  0  0  0  0  0  0  0  0  0  0  0
   -3.9616   -2.5096    8.3122 C   0  0  0  0  0  0  0  0  0  0  0  0
   -3.4981   -1.3406    8.9112 C   0  0  0  0  0  0  0  0  0  0  0  0
   -2.1929   -0.7664    8.8950 C   0  0  0  0  0  0  0  0  0  0  0  0
   -1.9047    0.3288    9.6216 C   0  0  0  0  0  0  0  0  0  0  0  0
   -0.6360    1.0347    9.5821 C   0  0  0  0  0  0  0  0  0  0  0  0
    0.5800    0.5060    9.8654 C   0  0  0  0  0  0  0  0  0  0  0  0
    1.6892    1.3302    9.7238 N   0  0  0  0  0  0  0  0  0  0  0  0
    3.0262    1.1373   10.1154 C   0  0  0  0  0  0  0  0  0  0  0  0
    3.4402    0.1553   11.0235 C   0  0  0  0  0  0  0  0  0  0  0  0
    4.7909   -0.0173   11.3465 C   0  0  0  0  0  0  0  0  0  0  0  0
    5.7559    0.7823   10.7407 C   0  0  0  0  0  0  0  0  0  0  0  0
    7.0745    0.6314   11.0798 O   0  0  0  0  0  0  0  0  0  0  0  0
    7.6258   -0.5487   10.4744 C   0  0  0  0  0  0  0  0  0  0  0  0
    9.1413   -0.5211   10.5029 C   0  0  0  0  0  0  0  0  0  0  0  0
    9.8414    0.6659   10.7947 C   0  0  0  0  0  0  0  0  0  0  0  0
   11.2389    0.7004   10.8024 C   0  0  0  0  0  0  0  0  0  0  0  0
   11.9636   -0.4500   10.5093 C   0  0  0  0  0  0  0  0  0  0  0  0
   11.2869   -1.6258   10.2046 C   0  0  0  0  0  0  0  0  0  0  0  0
   12.0087   -2.7197    9.9156 F   0  0  0  0  0  0  0  0  0  0  0  0
    9.8892   -1.6717   10.1934 C   0  0  0  0  0  0  0  0  0  0  0  0
    9.1171   -3.1644    9.7808 Cl  0  0  0  0  0  0  0  0  0  0  0  0
    5.3672    1.7772    9.8439 C   0  0  0  0  0  0  0  0  0  0  0  0
    6.5300    2.8052    9.0873 Cl  0  0  0  0  0  0  0  0  0  0  0  0
    4.0155    1.9445    9.5282 C   0  0  0  0  0  0  0  0  0  0  0  0
    0.6510   -0.7826   10.3383 N   0  0  0  0  0  0  0  0  0  0  0  0
    0.4148   -1.7769    9.5432 C   0  0  0  0  0  0  0  0  0  0  0  0
    0.0422   -1.7183    8.2270 N   0  0  0  0  0  0  0  0  0  0  0  0
   -1.1544   -1.3010    7.9662 C   0  0  0  0  0  0  0  0  0  0  0  0
   -4.5703   -0.7800    9.5789 O   0  0  0  0  0  0  0  0  0  0  0  0
   -9.9703    0.6004   10.3235 H   0  0  0  0  0  0  0  0  0  0  0  0
   -9.4258    2.2939   10.6145 H   0  0  0  0  0  0  0  0  0  0  0  0
  -11.1612    1.9221   10.4152 H   0  0  0  0  0  0  0  0  0  0  0  0
   -7.7348    2.4983    8.4615 H   0  0  0  0  0  0  0  0  0  0  0  0
   -8.2270    1.8799    6.8812 H   0  0  0  0  0  0  0  0  0  0  0  0
   -6.9361    0.1063    7.6161 H   0  0  0  0  0  0  0  0  0  0  0  0
   -8.5457   -0.4427    8.0981 H   0  0  0  0  0  0  0  0  0  0  0  0
   -6.4703    0.8199    9.7857 H   0  0  0  0  0  0  0  0  0  0  0  0
   -7.7409   -1.8278    9.8496 H   0  0  0  0  0  0  0  0  0  0  0  0
   -6.7722   -1.1452   11.1433 H   0  0  0  0  0  0  0  0  0  0  0  0
   -5.9985   -3.4536    8.3209 H   0  0  0  0  0  0  0  0  0  0  0  0
   -3.3673   -3.1915    7.7178 H   0  0  0  0  0  0  0  0  0  0  0  0
   -2.6605    0.7861   10.2565 H   0  0  0  0  0  0  0  0  0  0  0  0
   -0.7191    2.0807    9.2986 H   0  0  0  0  0  0  0  0  0  0  0  0
    1.5060    2.2169    9.2730 H   0  0  0  0  0  0  0  0  0  0  0  0
    2.7122   -0.4768   11.5241 H   0  0  0  0  0  0  0  0  0  0  0  0
    5.0738   -0.7684   12.0785 H   0  0  0  0  0  0  0  0  0  0  0  0
    7.2709   -1.4151   11.0446 H   0  0  0  0  0  0  0  0  0  0  0  0
    7.3049   -0.6297    9.4271 H   0  0  0  0  0  0  0  0  0  0  0  0
    9.2997    1.5846   11.0193 H   0  0  0  0  0  0  0  0  0  0  0  0
   11.7568    1.6282   11.0347 H   0  0  0  0  0  0  0  0  0  0  0  0
   13.0490   -0.4391   10.5101 H   0  0  0  0  0  0  0  0  0  0  0  0
    3.7334    2.7089    8.8090 H   0  0  0  0  0  0  0  0  0  0  0  0
    0.5268   -2.7930    9.9596 H   0  0  0  0  0  0  0  0  0  0  0  0
   -1.4751   -1.3354    6.9099 H   0  0  0  0  0  0  0  0  0  0  0  0
   -2.1419   -3.0088    2.1197 Ti  0  0  0  0  0  0  0  0  0  0  0  0
    0.2890   -1.6948    1.4324 Ti  0  0  0  0  0  0  0  0  0  0  0  0
    1.9031   -3.0677   -0.7293 Ti  0  0  0  0  0  0  0  0  0  0  0  0
   -2.5215   -0.2519    1.3037 Ti  0  0  0  0  0  0  0  0  0  0  0  0
    2.1420    0.4995    2.2044 Ti  0  0  0  0  0  0  0  0  0  0  0  0
   -0.6814    0.1896    3.6812 Ti  0  0  0  0  0  0  0  0  0  0  0  0
   -2.0368   -3.0777   -1.2005 Ti  0  0  0  0  0  0  0  0  0  0  0  0
   -0.6053   -0.7709   -2.0351 Ti  0  0  0  0  0  0  0  0  0  0  0  0
    1.9455   -1.5873   -3.4124 Ti  0  0  0  0  0  0  0  0  0  0  0  0
   -1.8782    1.7466   -1.2400 Ti  0  0  0  0  0  0  0  0  0  0  0  0
    2.4125    0.4542   -0.7742 Ti  0  0  0  0  0  0  0  0  0  0  0  0
    0.8177    1.8385   -2.9400 Ti  0  0  0  0  0  0  0  0  0  0  0  0
   -3.6784    1.2814    0.6007 C   0  0  0  0  0  0  0  0  0  0  0  0
    4.1282    0.4828    0.3873 C   0  0  0  0  0  0  0  0  0  0  0  0
    0.4555    2.2672    0.3497 C   0  0  0  0  0  0  0  0  0  0  0  0
   -3.6667    2.1188   -0.3139 C   0  0  0  0  0  0  0  0  0  0  0  0
    4.1160    0.6322    1.6214 C   0  0  0  0  0  0  0  0  0  0  0  0
   -0.6352    2.7410   -0.1189 C   0  0  0  0  0  0  0  0  0  0  0  0
    1.6301    1.7810    0.7342 C   0  0  0  0  0  0  0  0  0  0  0  0
   -3.0935   -1.9569    1.0379 O   0  0  0  0  0  0  0  0  0  0  0  0
   -0.4872   -2.6058    2.7012 O   0  0  0  0  0  0  0  0  0  0  0  0
    0.3141   -2.8889    0.1450 O   0  0  0  0  0  0  0  0  0  0  0  0
   -0.8008   -0.4359    0.9712 O   0  0  0  0  0  0  0  0  0  0  0  0
    1.9029   -1.1583    1.4694 O   0  0  0  0  0  0  0  0  0  0  0  0
   -2.3227   -0.1139    3.0248 O   0  0  0  0  0  0  0  0  0  0  0  0
    1.0138    0.4416    3.5688 O   0  0  0  0  0  0  0  0  0  0  0  0
   -1.7720   -4.5879   -1.6528 O   0  0  0  0  0  0  0  0  0  0  0  0
    0.1906   -1.1892   -3.5340 O   0  0  0  0  0  0  0  0  0  0  0  0
    2.8314   -2.1702   -1.9180 O   0  0  0  0  0  0  0  0  0  0  0  0
   -2.0546   -0.2244   -1.3375 O   0  0  0  0  0  0  0  0  0  0  0  0
    0.7685   -0.3906   -1.0637 O   0  0  0  0  0  0  0  0  0  0  0  0
   -0.9000    1.6493   -2.8186 O   0  0  0  0  0  0  0  0  0  0  0  0
    2.4153    1.3575   -2.2641 O   0  0  0  0  0  0  0  0  0  0  0  0
  1  2  1  0  0  0  0
  2  3  2  0  0  0  0
  2  4  2  0  0  0  0
  2  5  1  0  0  0  0
  5  6  1  0  0  0  0
  6  7  1  0  0  0  0
  7  8  1  0  0  0  0
  8  9  1  0  0  0  0
  9 10  2  0  0  0  0
 10 11  4  0  0  0  0
 11 12  4  0  0  0  0
 12 13  1  0  0  0  0
 13 14  2  0  0  0  0
 14 15  1  0  0  0  0
 15 16  2  0  0  0  0
 16 17  1  0  0  0  0
 17 18  1  0  0  0  0
 18 19  4  0  0  0  0
 19 20  4  0  0  0  0
 20 21  4  0  0  0  0
 21 22  1  0  0  0  0
 22 23  1  0  0  0  0
 23 24  1  0  0  0  0
 24 25  4  0  0  0  0
 25 26  4  0  0  0  0
 26 27  4  0  0  0  0
 27 28  4  0  0  0  0
 28 29  1  0  0  0  0
 24 30  4  0  0  0  0
 28 30  4  0  0  0  0
 30 31  1  0  0  0  0
 21 32  4  0  0  0  0
 32 33  1  0  0  0  0
 18 34  4  0  0  0  0
 32 34  4  0  0  0  0
 16 35  1  0  0  0  0
 35 36  2  0  0  0  0
 36 37  1  0  0  0  0
 13 38  1  0  0  0  0
 37 38  2  0  0  0  0
  9 39  1  0  0  0  0
 12 39  1  0  0  0  0
  1 40  1  0  0  0  0
  1 41  1  0  0  0  0
  1 42  1  0  0  0  0
  5 43  1  0  0  0  0
  5 44  1  0  0  0  0
  6 45  1  0  0  0  0
  6 46  1  0  0  0  0
  7 47  1  0  0  0  0
  8 48  1  0  0  0  0
  8 49  1  0  0  0  0
 10 50  1  0  0  0  0
 11 51  1  0  0  0  0
 14 52  1  0  0  0  0
 15 53  1  0  0  0  0
 17 54  1  0  0  0  0
 19 55  1  0  0  0  0
 20 56  1  0  0  0  0
 23 57  1  0  0  0  0
 23 58  1  0  0  0  0
 25 59  1  0  0  0  0
 26 60  1  0  0  0  0
 27 61  1  0  0  0  0
 34 62  1  0  0  0  0
 36 63  1  0  0  0  0
 38 64  1  0  0  0  0
 65 71  1  0  0  0  0
 71 72  1  0  0  0  0
 67 73  1  0  0  0  0
 68 77  1  0  0  0  0
 75 78  1  0  0  0  0
 74 80  1  0  0  0  0
 77 80  3  0  0  0  0
 69 81  1  0  0  0  0
 78 81  3  0  0  0  0
 74 82  1  0  0  0  0
 79 82  2  0  0  0  0
 69 83  1  0  0  0  0
 75 83  1  0  0  0  0
 79 83  2  0  0  0  0
 65 84  1  0  0  0  0
 68 84  1  0  0  0  0
 65 85  1  0  0  0  0
 66 85  1  0  0  0  0
 66 86  1  0  0  0  0
 67 86  1  0  0  0  0
 66 87  1  0  0  0  0
 68 87  1  0  0  0  0
 66 88  1  0  0  0  0
 69 88  1  0  0  0  0
 68 89  1  0  0  0  0
 70 89  1  0  0  0  0
 69 90  1  0  0  0  0
 70 90  1  0  0  0  0
 71 91  2  0  0  0  0
 72 92  1  0  0  0  0
 73 92  1  0  0  0  0
 67 93  1  0  0  0  0
 73 93  1  0  0  0  0
 72 94  1  0  0  0  0
 74 94  1  0  0  0  0
 72 95  1  0  0  0  0
 75 95  1  0  0  0  0
 74 96  1  0  0  0  0
 76 96  1  0  0  0  0
 75 97  1  0  0  0  0
 76 97  1  0  0  0  0
M  END
