 xtb: 6.7.1pre (5071a88)
          08312621183D

 97108  0     0  0            999 V2000
    9.4533    3.9373   11.8929 C   0  0  0  0  0  0  0  0  0  0  0  0
    8.8087    2.2924   11.6968 S   0  0  0  0  0  0  0  0  0  0  0  0
    8.7618    2.0040   10.2766 O   0  0  0  0  0  0  0  0  0  0  0  0
    9.5534    1.4364   12.6010 O   0  0  0  0  0  0  0  0  0  0  0  0
    7.1386    2.4071   12.3184 C   0  0  0  0  0  0  0  0  0  0  0  0
    6.2229    3.1553   11.3604 C   0  0  0  0  0  0  0  0  0  0  0  0
    4.8872    3.3014   11.9509 N   0  0  0  0  0  0  0  0  0  0  0  0
    3.9262    3.9182   11.0276 C   0  0  0  0  0  0  0  0  0  0  0  0
    3.4644    2.9815    9.9678 C   0  0  0  0  0  0  0  0  0  0  0  0
    3.8020    2.8045    8.6474 C   0  0  0  0  0  0  0  0  0  0  0  0
    3.0002    1.7364    8.1785 C   0  0  0  0  0  0  0  0  0  0  0  0
    2.1922    1.3020    9.2270 C   0  0  0  0  0  0  0  0  0  0  0  0
    1.2204    0.2605    9.2939 C   0  0  0  0  0  0  0  0  0  0  0  0
    0.7395   -0.3542    8.1977 C   0  0  0  0  0  0  0  0  0  0  0  0
   -0.3294   -1.3364    8.1971 C   0  0  0  0  0  0  0  0  0  0  0  0
   -0.3478   -2.4953    8.8953 C   0  0  0  0  0  0  0  0  0  0  0  0
   -1.4154   -3.3705    8.7695 N   0  0  0  0  0  0  0  0  0  0  0  0
   -2.7592   -3.1083    9.1277 C   0  0  0  0  0  0  0  0  0  0  0  0
   -3.1817   -1.9188    9.7359 C   0  0  0  0  0  0  0  0  0  0  0  0
   -4.5281   -1.7101   10.0475 C   0  0  0  0  0  0  0  0  0  0  0  0
   -5.4691   -2.6974    9.7645 C   0  0  0  0  0  0  0  0  0  0  0  0
   -6.7742   -2.4254   10.0756 O   0  0  0  0  0  0  0  0  0  0  0  0
   -7.1991   -3.1166   11.2574 C   0  0  0  0  0  0  0  0  0  0  0  0
   -7.3593   -2.1255   12.3858 C   0  0  0  0  0  0  0  0  0  0  0  0
   -6.3342   -2.0177   13.3467 C   0  0  0  0  0  0  0  0  0  0  0  0
   -6.4232   -1.0992   14.3952 C   0  0  0  0  0  0  0  0  0  0  0  0
   -7.5359   -0.2700   14.4964 C   0  0  0  0  0  0  0  0  0  0  0  0
   -8.5503   -0.3616   13.5479 C   0  0  0  0  0  0  0  0  0  0  0  0
   -9.6093    0.4538   13.6700 F   0  0  0  0  0  0  0  0  0  0  0  0
   -8.4729   -1.2762   12.4933 C   0  0  0  0  0  0  0  0  0  0  0  0
   -9.7678   -1.3274   11.3497 Cl  0  0  0  0  0  0  0  0  0  0  0  0
   -5.0730   -3.8749    9.1264 C   0  0  0  0  0  0  0  0  0  0  0  0
   -6.2119   -5.0968    8.6912 Cl  0  0  0  0  0  0  0  0  0  0  0  0
   -3.7251   -4.0789    8.8183 C   0  0  0  0  0  0  0  0  0  0  0  0
    0.7684   -2.9101    9.5769 N   0  0  0  0  0  0  0  0  0  0  0  0
    1.1295   -2.2767   10.6483 C   0  0  0  0  0  0  0  0  0  0  0  0
    0.5066   -1.2015   11.2224 N   0  0  0  0  0  0  0  0  0  0  0  0
    0.6146   -0.0594   10.6213 C   0  0  0  0  0  0  0  0  0  0  0  0
    2.4950    2.0934   10.3174 O   0  0  0  0  0  0  0  0  0  0  0  0
    9.3612    4.2304   12.9402 H   0  0  0  0  0  0  0  0  0  0  0  0
    8.9025    4.6217   11.2469 H   0  0  0  0  0  0  0  0  0  0  0  0
   10.5062    3.9241   11.6025 H   0  0  0  0  0  0  0  0  0  0  0  0
    6.7879    1.3790   12.4624 H   0  0  0  0  0  0  0  0  0  0  0  0
    7.1922    2.8889   13.3004 H   0  0  0  0  0  0  0  0  0  0  0  0
    6.1697    2.5985   10.4189 H   0  0  0  0  0  0  0  0  0  0  0  0
    6.6319    4.1458   11.1342 H   0  0  0  0  0  0  0  0  0  0  0  0
    4.9361    3.8738   12.7923 H   0  0  0  0  0  0  0  0  0  0  0  0
    4.3423    4.8313   10.5853 H   0  0  0  0  0  0  0  0  0  0  0  0
    3.0507    4.2315   11.6097 H   0  0  0  0  0  0  0  0  0  0  0  0
    4.5439    3.3630    8.0940 H   0  0  0  0  0  0  0  0  0  0  0  0
    3.0200    1.3185    7.1812 H   0  0  0  0  0  0  0  0  0  0  0  0
    1.0930   -0.0899    7.2047 H   0  0  0  0  0  0  0  0  0  0  0  0
   -1.1679   -1.1040    7.5440 H   0  0  0  0  0  0  0  0  0  0  0  0
   -1.1239   -4.2817    9.1174 H   0  0  0  0  0  0  0  0  0  0  0  0
   -2.4675   -1.1425    9.9972 H   0  0  0  0  0  0  0  0  0  0  0  0
   -4.8382   -0.7796   10.5159 H   0  0  0  0  0  0  0  0  0  0  0  0
   -6.5120   -3.9210   11.5566 H   0  0  0  0  0  0  0  0  0  0  0  0
   -8.1530   -3.6111   11.0418 H   0  0  0  0  0  0  0  0  0  0  0  0
   -5.4502   -2.6510   13.2775 H   0  0  0  0  0  0  0  0  0  0  0  0
   -5.6228   -1.0302   15.1285 H   0  0  0  0  0  0  0  0  0  0  0  0
   -7.6214    0.4501   15.3044 H   0  0  0  0  0  0  0  0  0  0  0  0
   -3.4226   -4.9942    8.3150 H   0  0  0  0  0  0  0  0  0  0  0  0
    2.0250   -2.6466   11.1774 H   0  0  0  0  0  0  0  0  0  0  0  0
    0.1988    0.8200   11.1448 H   0  0  0  0  0  0  0  0  0  0  0  0
   -2.1419   -3.0088    2.1197 Ti  0  0  0  0  0  0  0  0  0  0  0  0
    0.2890   -1.6948    1.4324 Ti  0  0  0  0  0  0  0  0  0  0  0  0
    1.9031   -3.0677   -0.7293 Ti  0  0  0  0  0  0  0  0  0  0  0  0
   -2.5215   -0.2519    1.3037 Ti  0  0  0  0  0  0  0  0  0  0  0  0
    2.1420    0.4995    2.2044 Ti  0  0  0  0  0  0  0  0  0  0  0  0
   -0.6814    0.1896    3.6812 Ti  0  0  0  0  0  0  0  0  0  0  0  0
   -2.0368   -3.0777   -1.2005 Ti  0  0  0  0  0  0  0  0  0  0  0  0
   -0.6053   -0.7709   -2.0351 Ti  0  0  0  0  0  0  0  0  0  0  0  0
    1.9455   -1.5873   -3.4124 Ti  0  0  0  0  0  0  0  0  0  0  0  0
   -1.8782    1.7466   -1.2400 Ti  0  0  0  0  0  0  0  0  0  0  0  0
    2.4125    0.4542   -0.7742 Ti  0  0  0  0  0  0  0  0  0  0  0  0
    0.8177    1.8385   -2.9400 Ti  0  0  0  0  0  0  0  0  0  0  0  0
   -3.6784    1.2814    0.6007 C   0  0  0  0  0  0  0  0  0  0  0  0
    4.1282    0.4828    0.3873 C   0  0  0  0  0  0  0  0  0  0  0  0
    0.4555    2.2672    0.3497 C   0  0  0  0  0  0  0  0  0  0  0  0
   -3.6667    2.1188   -0.3139 C   0  0  0  0  0  0  0  0  0  0  0  0
    4.1160    0.6322    1.6214 C   0  0  0  0  0  0  0  0  0  0  0  0
   -0.6352    2.7410   -0.1189 C   0  0  0  0  0  0  0  0  0  0  0  0
    1.6301    1.7810    0.7342 C   0  0  0  0  0  0  0  0  0  0  0  0
   -3.0935   -1.9569    1.0379 O   0  0  0  0  0  0  0  0  0  0  0  0
   -0.4872   -2.6058    2.7012 O   0  0  0  0  0  0  0  0  0  0  0  0
    0.3141   -2.8889    0.1450 O   0  0  0  0  0  0  0  0  0  0  0  0
   -0.8008   -0.4359    0.9712 O   0  0  0  0  0  0  0  0  0  0  0  0
    1.9029   -1.1583    1.4694 O   0  0  0  0  0  0  0  0  0  0  0  0
   -2.3227   -0.1139    3.0248 O   0  0  0  0  0  0  0  0  0  0  0  0
    1.0138    0.4416    3.5688 O   0  0  0  0  0  0  0  0  0  0  0  0
   -1.7720   -4.5879   -1.6528 O   0  0  0  0  0  0  0  0  0  0  0  0
    0.1906   -1.1892   -3.5340 O   0  0  0  0  0  0  0  0  0  0  0  0
    2.8314   -2.1702   -1.9180 O   0  0  0  0  0  0  0  0  0  0  0  0
   -2.0546   -0.2244   -1.3375 O   0  0  0  0  0  0  0  0  0  0  0  0
    0.7685   -0.3906   -1.0637 O   0  0  0  0  0  0  0  0  0  0  0  0
   -0.9000    1.6493   -2.8186 O   0  0  0  0  0  0  0  0  0  0  0  0
    2.4153    1.3575   -2.2641 O   0  0  0  0  0  0  0  0  0  0  0  0
  1  2  1  0  0  0  0
  2  3  2  0  0  0  0
  2  4  2  0  0  0  0
  2  5  1  0  0  0  0
  5  6  1  0  0  0  0
  6  7  1  0  0  0  0
  7  8  1  0  0  0  0
  8  9  1  0  0  0  0
  9 10  2  0  0  0  0
 10 11  4  0  0  0  0
 11 12  4  0  0  0  0
 12 13  1  0  0  0  0
 13 14  2  0  0  0  0
 14 15  1  0  0  0  0
 15 16  2  0  0  0  0
 16 17  1  0  0  0  0
 17 18  1  0  0  0  0
 18 19  4  0  0  0  0
 19 20  4  0  0  0  0
 20 21  4  0  0  0  0
 21 22  1  0  0  0  0
 22 23  1  0  0  0  0
 23 24  1  0  0  0  0
 24 25  4  0  0  0  0
 25 26  4  0  0  0  0
 26 27  4  0  0  0  0
 27 28  4  0  0  0  0
 28 29  1  0  0  0  0
 24 30  4  0  0  0  0
 28 30  4  0  0  0  0
 30 31  1  0  0  0  0
 21 32  4  0  0  0  0
 32 33  1  0  0  0  0
 18 34  4  0  0  0  0
 32 34  4  0  0  0  0
 16 35  1  0  0  0  0
 35 36  2  0  0  0  0
 36 37  1  0  0  0  0
 13 38  1  0  0  0  0
 37 38  2  0  0  0  0
  9 39  1  0  0  0  0
 12 39  1  0  0  0  0
  1 40  1  0  0  0  0
  1 41  1  0  0  0  0
  1 42  1  0  0  0  0
  5 43  1  0  0  0  0
  5 44  1  0  0  0  0
  6 45  1  0  0  0  0
  6 46  1  0  0  0  0
  7 47  1  0  0  0  0
  8 48  1  0  0  0  0
  8 49  1  0  0  0  0
 10 50  1  0  0  0  0
 11 51  1  0  0  0  0
 14 52  1  0  0  0  0
 15 53  1  0  0  0  0
 17 54  1  0  0  0  0
 19 55  1  0  0  0  0
 20 56  1  0  0  0  0
 23 57  1  0  0  0  0
 23 58  1  0  0  0  0
 25 59  1  0  0  0  0
 26 60  1  0  0  0  0
 27 61  1  0  0  0  0
 34 62  1  0  0  0  0
 36 63  1  0  0  0  0
 38 64  1  0  0  0  0
 65 71  1  0  0  0  0
 71 72  1  0  0  0  0
 67 73  1  0  0  0  0
 68 77  1  0  0  0  0
 75 78  1  0  0  0  0
 74 80  1  0  0  0  0
 77 80  3  0  0  0  0
 69 81  1  0  0  0  0
 78 81  3  0  0  0  0
 74 82  1  0  0  0  0
 79 82  2  0  0  0  0
 69 83  1  0  0  0  0
 75 83  1  0  0  0  0
 79 83  2  0  0  0  0
 65 84  1  0  0  0  0
 68 84  1  0  0  0  0
 65 85  1  0  0  0  0
 66 85  1  0  0  0  0
 66 86  1  0  0  0  0
 67 86  1  0  0  0  0
 66 87  1  0  0  0  0
 68 87  1  0  0  0  0
 66 88  1  0  0  0  0
 69 88  1  0  0  0  0
 68 89  1  0  0  0  0
 70 89  1  0  0  0  0
 69 90  1  0  0  0  0
 70 90  1  0  0  0  0
 71 91  2  0  0  0  0
 72 92  1  0  0  0  0
 73 92  1  0  0  0  0
 67 93  1  0  0  0  0
 73 93  1  0  0  0  0
 72 94  1  0  0  0  0
 74 94  1  0  0  0  0
 72 95  1  0  0  0  0
 75 95  1  0  0  0  0
 74 96  1  0  0  0  0
 76 96  1  0  0  0  0
 75 97  1  0  0  0  0
 76 97  1  0  0  0  0
M  END
