 xtb: 6.7.1pre (5071a88)
          09012620323D

 33 41  0     0  0            999 V2000
   -2.4479   -2.8236    2.4891 Ti  0  0  0  0  0  0  0  0  0  0  0  0
    0.0427   -1.5240    2.0289 Ti  0  0  0  0  0  0  0  0  0  0  0  0
    1.9102   -3.0208    0.1706 Ti  0  0  0  0  0  0  0  0  0  0  0  0
   -2.7383   -0.1312    1.4523 Ti  0  0  0  0  0  0  0  0  0  0  0  0
    1.7756    0.7349    2.8804 Ti  0  0  0  0  0  0  0  0  0  0  0  0
   -1.2132    0.4885    4.0062 Ti  0  0  0  0  0  0  0  0  0  0  0  0
   -1.9276   -3.0991   -0.7838 Ti  0  0  0  0  0  0  0  0  0  0  0  0
   -0.4151   -0.8297   -1.5787 Ti  0  0  0  0  0  0  0  0  0  0  0  0
    2.2859   -1.7054   -2.5725 Ti  0  0  0  0  0  0  0  0  0  0  0  0
   -1.7959    1.7128   -1.1085 Ti  0  0  0  0  0  0  0  0  0  0  0  0
    2.4122    0.5072   -0.0340 Ti  0  0  0  0  0  0  0  0  0  0  0  0
    1.0898    1.7378   -2.4589 Ti  0  0  0  0  0  0  0  0  0  0  0  0
   -3.8109    1.3346    0.5114 C   0  0  0  0  0  0  0  0  0  0  0  0
    3.9719    0.6314    1.3246 C   0  0  0  0  0  0  0  0  0  0  0  0
    0.3184    2.3569    0.7258 C   0  0  0  0  0  0  0  0  0  0  0  0
   -3.6910    2.1162   -0.4441 C   0  0  0  0  0  0  0  0  0  0  0  0
    3.8055    0.8587    2.5355 C   0  0  0  0  0  0  0  0  0  0  0  0
   -0.7110    2.7858    0.1015 C   0  0  0  0  0  0  0  0  0  0  0  0
    1.4418    1.9142    1.2794 C   0  0  0  0  0  0  0  0  0  0  0  0
   -3.2609   -1.8594    1.2268 O   0  0  0  0  0  0  0  0  0  0  0  0
   -0.8842   -2.3590    3.2489 O   0  0  0  0  0  0  0  0  0  0  0  0
    0.2311   -2.7997    0.8393 O   0  0  0  0  0  0  0  0  0  0  0  0
   -0.9883   -0.3158    1.3500 O   0  0  0  0  0  0  0  0  0  0  0  0
    1.6389   -0.9667    2.2272 O   0  0  0  0  0  0  0  0  0  0  0  0
   -2.7587    0.1220    3.1706 O   0  0  0  0  0  0  0  0  0  0  0  0
    0.4823    0.7499    4.0906 O   0  0  0  0  0  0  0  0  0  0  0  0
   -1.5438   -4.6170   -1.1084 O   0  0  0  0  0  0  0  0  0  0  0  0
    0.5587   -1.3243   -2.9405 O   0  0  0  0  0  0  0  0  0  0  0  0
    2.9766   -2.1951   -0.9544 O   0  0  0  0  0  0  0  0  0  0  0  0
   -1.9432   -0.2574   -1.1055 O   0  0  0  0  0  0  0  0  0  0  0  0
    0.8255   -0.3772   -0.4691 O   0  0  0  0  0  0  0  0  0  0  0  0
   -0.6288    1.5433   -2.5413 O   0  0  0  0  0  0  0  0  0  0  0  0
    2.5930    1.3172   -1.5665 O   0  0  0  0  0  0  0  0  0  0  0  0
  1  7  1  0  0  0  0
  7  8  1  0  0  0  0
  3  9  1  0  0  0  0
  4 13  1  0  0  0  0
 11 14  1  0  0  0  0
 10 16  1  0  0  0  0
 13 16  3  0  0  0  0
  5 17  1  0  0  0  0
 14 17  3  0  0  0  0
 10 18  1  0  0  0  0
 15 18  2  0  0  0  0
  5 19  1  0  0  0  0
 11 19  1  0  0  0  0
 15 19  2  0  0  0  0
  1 20  1  0  0  0  0
  4 20  1  0  0  0  0
  1 21  1  0  0  0  0
  2 21  1  0  0  0  0
  2 22  1  0  0  0  0
  3 22  1  0  0  0  0
  2 23  1  0  0  0  0
  4 23  1  0  0  0  0
  2 24  1  0  0  0  0
  5 24  1  0  0  0  0
  4 25  1  0  0  0  0
  6 25  1  0  0  0  0
  5 26  1  0  0  0  0
  6 26  1  0  0  0  0
  7 27  2  0  0  0  0
  8 28  1  0  0  0  0
  9 28  1  0  0  0  0
  3 29  1  0  0  0  0
  9 29  1  0  0  0  0
  8 30  1  0  0  0  0
 10 30  1  0  0  0  0
  8 31  1  0  0  0  0
 11 31  1  0  0  0  0
 10 32  1  0  0  0  0
 12 32  1  0  0  0  0
 11 33  1  0  0  0  0
 12 33  1  0  0  0  0
M  END
