 xtb: 6.7.1pre (5071a88)
          09022620123D

 33 40  0     0  0            999 V2000
   -1.9419   -2.4710    7.0799 Ti  0  0  0  0  0  0  0  0  0  0  0  0
   -0.1252   -2.9646    4.9791 Ti  0  0  0  0  0  0  0  0  0  0  0  0
    0.0565   -5.6602    3.7754 Ti  0  0  0  0  0  0  0  0  0  0  0  0
   -2.3522   -0.6202    4.3594 Ti  0  0  0  0  0  0  0  0  0  0  0  0
    1.9829   -1.4046    3.3519 Ti  0  0  0  0  0  0  0  0  0  0  0  0
    0.3417    0.2240    5.3229 Ti  0  0  0  0  0  0  0  0  0  0  0  0
   -3.3294   -4.2723    4.8806 Ti  0  0  0  0  0  0  0  0  0  0  0  0
   -2.3636   -3.8045    2.1298 Ti  0  0  0  0  0  0  0  0  0  0  0  0
   -0.9549   -5.8384    0.7794 Ti  0  0  0  0  0  0  0  0  0  0  0  0
   -3.2701   -0.9357    1.5324 Ti  0  0  0  0  0  0  0  0  0  0  0  0
    0.7126   -3.0456    1.2050 Ti  0  0  0  0  0  0  0  0  0  0  0  0
   -1.5302   -2.2572   -0.6003 Ti  0  0  0  0  0  0  0  0  0  0  0  0
   -4.2067    0.0923    3.8064 C   0  0  0  0  0  0  0  0  0  0  0  0
    2.7681   -2.9913    1.3784 C   0  0  0  0  0  0  0  0  0  0  0  0
   -0.4483   -0.4401    2.0843 C   0  0  0  0  0  0  0  0  0  0  0  0
   -4.6068    0.1507    2.6316 C   0  0  0  0  0  0  0  0  0  0  0  0
    3.3975   -2.2333    2.1362 C   0  0  0  0  0  0  0  0  0  0  0  0
   -1.6471    0.0174    2.3528 C   0  0  0  0  0  0  0  0  0  0  0  0
    0.7496   -0.8883    1.7999 C   0  0  0  0  0  0  0  0  0  0  0  0
   -3.3288   -3.0669    6.1791 O   0  0  0  0  0  0  0  0  0  0  0  0
   -0.1657   -2.3355    6.6030 O   0  0  0  0  0  0  0  0  0  0  0  0
   -0.5075   -4.6463    5.1224 O   0  0  0  0  0  0  0  0  0  0  0  0
   -1.4318   -2.0903    4.2749 O   0  0  0  0  0  0  0  0  0  0  0  0
    1.2989   -2.8913    4.0154 O   0  0  0  0  0  0  0  0  0  0  0  0
   -1.4276    0.2814    5.4976 O   0  0  0  0  0  0  0  0  0  0  0  0
    1.8490   -0.2187    4.6124 O   0  0  0  0  0  0  0  0  0  0  0  0
   -2.6805   -4.9577    3.3784 O   0  0  0  0  0  0  0  0  0  0  0  0
   -2.4050   -4.7273    0.6442 O   0  0  0  0  0  0  0  0  0  0  0  0
    0.2818   -5.9494    2.0415 O   0  0  0  0  0  0  0  0  0  0  0  0
   -3.4251   -2.4744    2.3867 O   0  0  0  0  0  0  0  0  0  0  0  0
   -0.7179   -3.3114    2.1561 O   0  0  0  0  0  0  0  0  0  0  0  0
   -2.9087   -1.3371   -0.1164 O   0  0  0  0  0  0  0  0  0  0  0  0
    0.0406   -3.0762   -0.3819 O   0  0  0  0  0  0  0  0  0  0  0  0
  4 13  1  0  0  0  0
 11 14  1  0  0  0  0
 10 16  1  0  0  0  0
 13 16  3  0  0  0  0
  5 17  1  0  0  0  0
 14 17  3  0  0  0  0
  4 18  1  0  0  0  0
 10 18  1  0  0  0  0
 15 18  2  0  0  0  0
  5 19  1  0  0  0  0
 11 19  1  0  0  0  0
 15 19  2  0  0  0  0
  1 20  1  0  0  0  0
  7 20  1  0  0  0  0
  1 21  1  0  0  0  0
  2 21  1  0  0  0  0
  2 22  1  0  0  0  0
  3 22  1  0  0  0  0
  2 23  1  0  0  0  0
  4 23  1  0  0  0  0
  2 24  1  0  0  0  0
  5 24  1  0  0  0  0
  4 25  1  0  0  0  0
  6 25  1  0  0  0  0
  5 26  1  0  0  0  0
  6 26  1  0  0  0  0
  7 27  1  0  0  0  0
  8 27  1  0  0  0  0
  8 28  1  0  0  0  0
  9 28  1  0  0  0  0
  3 29  1  0  0  0  0
  9 29  1  0  0  0  0
  8 30  1  0  0  0  0
 10 30  1  0  0  0  0
  8 31  1  0  0  0  0
 11 31  1  0  0  0  0
 10 32  1  0  0  0  0
 12 32  1  0  0  0  0
 11 33  1  0  0  0  0
 12 33  1  0  0  0  0
M  END
