 xtb: 6.7.1pre (5071a88)
          09012617043D

 33 41  0     0  0            999 V2000
   -2.4993   -2.8739    2.4279 Ti  0  0  0  0  0  0  0  0  0  0  0  0
    0.0023   -1.5533    2.0495 Ti  0  0  0  0  0  0  0  0  0  0  0  0
    1.9337   -2.9824    0.1840 Ti  0  0  0  0  0  0  0  0  0  0  0  0
   -2.7603   -0.1522    1.4987 Ti  0  0  0  0  0  0  0  0  0  0  0  0
    1.7715    0.7532    2.8879 Ti  0  0  0  0  0  0  0  0  0  0  0  0
   -1.1363    0.6036    3.9334 Ti  0  0  0  0  0  0  0  0  0  0  0  0
   -1.9156   -3.1031   -0.7940 Ti  0  0  0  0  0  0  0  0  0  0  0  0
   -0.4060   -0.8326   -1.5742 Ti  0  0  0  0  0  0  0  0  0  0  0  0
    2.3013   -1.6876   -2.5702 Ti  0  0  0  0  0  0  0  0  0  0  0  0
   -1.8007    1.6905   -1.0991 Ti  0  0  0  0  0  0  0  0  0  0  0  0
    2.4117    0.4898   -0.0470 Ti  0  0  0  0  0  0  0  0  0  0  0  0
    1.0911    1.7347   -2.4635 Ti  0  0  0  0  0  0  0  0  0  0  0  0
   -3.8203    1.3205    0.5539 C   0  0  0  0  0  0  0  0  0  0  0  0
    3.9650    0.5773    1.3193 C   0  0  0  0  0  0  0  0  0  0  0  0
    0.3362    2.3540    0.7207 C   0  0  0  0  0  0  0  0  0  0  0  0
   -3.6880    2.0874   -0.4115 C   0  0  0  0  0  0  0  0  0  0  0  0
    3.8000    0.8108    2.5293 C   0  0  0  0  0  0  0  0  0  0  0  0
   -0.7197    2.7609    0.1273 C   0  0  0  0  0  0  0  0  0  0  0  0
    1.4731    1.9251    1.2556 C   0  0  0  0  0  0  0  0  0  0  0  0
   -3.3398   -1.8643    1.2415 O   0  0  0  0  0  0  0  0  0  0  0  0
   -0.9375   -2.4391    3.2097 O   0  0  0  0  0  0  0  0  0  0  0  0
    0.2577   -2.8089    0.8300 O   0  0  0  0  0  0  0  0  0  0  0  0
   -1.0294   -0.3891    1.2980 O   0  0  0  0  0  0  0  0  0  0  0  0
    1.5761   -0.9341    2.2718 O   0  0  0  0  0  0  0  0  0  0  0  0
   -2.6965    0.0915    3.2184 O   0  0  0  0  0  0  0  0  0  0  0  0
    0.5425    0.9399    4.1348 O   0  0  0  0  0  0  0  0  0  0  0  0
   -1.5329   -4.6134   -1.1520 O   0  0  0  0  0  0  0  0  0  0  0  0
    0.5721   -1.3123   -2.9367 O   0  0  0  0  0  0  0  0  0  0  0  0
    2.9942   -2.1456   -0.9417 O   0  0  0  0  0  0  0  0  0  0  0  0
   -1.9432   -0.2492   -1.1399 O   0  0  0  0  0  0  0  0  0  0  0  0
    0.8289   -0.3648   -0.4600 O   0  0  0  0  0  0  0  0  0  0  0  0
   -0.6302    1.5738   -2.5307 O   0  0  0  0  0  0  0  0  0  0  0  0
    2.5996    1.2987   -1.5783 O   0  0  0  0  0  0  0  0  0  0  0  0
  1  7  1  0  0  0  0
  7  8  1  0  0  0  0
  3  9  1  0  0  0  0
  4 13  1  0  0  0  0
 11 14  1  0  0  0  0
 10 16  1  0  0  0  0
 13 16  3  0  0  0  0
  5 17  1  0  0  0  0
 14 17  3  0  0  0  0
 10 18  1  0  0  0  0
 15 18  2  0  0  0  0
  5 19  1  0  0  0  0
 11 19  1  0  0  0  0
 15 19  2  0  0  0  0
  1 20  1  0  0  0  0
  4 20  1  0  0  0  0
  1 21  1  0  0  0  0
  2 21  1  0  0  0  0
  2 22  1  0  0  0  0
  3 22  1  0  0  0  0
  2 23  1  0  0  0  0
  4 23  1  0  0  0  0
  2 24  1  0  0  0  0
  5 24  1  0  0  0  0
  4 25  1  0  0  0  0
  6 25  1  0  0  0  0
  5 26  1  0  0  0  0
  6 26  1  0  0  0  0
  7 27  2  0  0  0  0
  8 28  1  0  0  0  0
  9 28  1  0  0  0  0
  3 29  1  0  0  0  0
  9 29  1  0  0  0  0
  8 30  1  0  0  0  0
 10 30  1  0  0  0  0
  8 31  1  0  0  0  0
 11 31  1  0  0  0  0
 10 32  1  0  0  0  0
 12 32  1  0  0  0  0
 11 33  1  0  0  0  0
 12 33  1  0  0  0  0
M  END
