 xtb: 6.7.1pre (5071a88)
          08312621533D

 63 72  0     0  0            999 V2000
   -1.3524    1.7699   10.6679 C   0  0  0  0  0  0  0  0  0  0  0  0
   -1.9534    1.1202    9.4390 C   0  0  0  0  0  0  0  0  0  0  0  0
   -1.3319   -0.2079    8.9733 C   0  0  0  0  0  0  0  0  0  0  0  0
   -2.0588   -0.6098    7.6575 C   0  0  0  0  0  0  0  0  0  0  0  0
    0.1817   -0.3973    8.7535 C   0  0  0  0  0  0  0  0  0  0  0  0
    1.2298   -0.0765    9.8397 C   0  0  0  0  0  0  0  0  0  0  0  0
    1.1663   -1.5846   10.1402 C   0  0  0  0  0  0  0  0  0  0  0  0
    1.7755   -2.3892   10.8023 O   0  0  0  0  0  0  0  0  0  0  0  0
    0.0320   -1.7453    9.3860 N   0  0  0  0  0  0  0  0  0  0  0  0
   -1.2763   -1.3885    9.9733 C   0  0  0  0  0  0  0  0  0  0  0  0
   -2.2728   -2.4069    9.8397 O   0  0  0  0  0  0  0  0  0  0  0  0
    2.5344    0.4751    9.2680 C   0  0  0  0  0  0  0  0  0  0  0  0
    3.4507    1.0423   10.3462 C   0  0  0  0  0  0  0  0  0  0  0  0
    4.1938   -0.2213   11.3409 Cl  0  0  0  0  0  0  0  0  0  0  0  0
   -1.9844    2.6050   10.9899 H   0  0  0  0  0  0  0  0  0  0  0  0
   -1.2691    1.0778   11.5090 H   0  0  0  0  0  0  0  0  0  0  0  0
   -0.3680    2.1917   10.4482 H   0  0  0  0  0  0  0  0  0  0  0  0
   -3.0200    0.9538    9.6399 H   0  0  0  0  0  0  0  0  0  0  0  0
   -1.9055    1.8508    8.6212 H   0  0  0  0  0  0  0  0  0  0  0  0
   -3.1387   -0.6981    7.8214 H   0  0  0  0  0  0  0  0  0  0  0  0
   -1.7035   -1.5689    7.2634 H   0  0  0  0  0  0  0  0  0  0  0  0
   -1.8951    0.1463    6.8812 H   0  0  0  0  0  0  0  0  0  0  0  0
    0.5408   -0.4659    7.7208 H   0  0  0  0  0  0  0  0  0  0  0  0
    0.8800    0.5048   10.6950 H   0  0  0  0  0  0  0  0  0  0  0  0
   -1.1843   -1.1057   11.0284 H   0  0  0  0  0  0  0  0  0  0  0  0
   -1.7939   -3.2190   10.0822 H   0  0  0  0  0  0  0  0  0  0  0  0
    3.0555   -0.2785    8.6653 H   0  0  0  0  0  0  0  0  0  0  0  0
    2.2889    1.3020    8.5891 H   0  0  0  0  0  0  0  0  0  0  0  0
    4.2679    1.6019    9.8809 H   0  0  0  0  0  0  0  0  0  0  0  0
    2.9109    1.7214   11.0132 H   0  0  0  0  0  0  0  0  0  0  0  0
   -2.1419   -3.0088    2.1197 Ti  0  0  0  0  0  0  0  0  0  0  0  0
    0.2890   -1.6948    1.4324 Ti  0  0  0  0  0  0  0  0  0  0  0  0
    1.9031   -3.0677   -0.7293 Ti  0  0  0  0  0  0  0  0  0  0  0  0
   -2.5215   -0.2519    1.3037 Ti  0  0  0  0  0  0  0  0  0  0  0  0
    2.1420    0.4995    2.2044 Ti  0  0  0  0  0  0  0  0  0  0  0  0
   -0.6814    0.1896    3.6812 Ti  0  0  0  0  0  0  0  0  0  0  0  0
   -2.0368   -3.0777   -1.2005 Ti  0  0  0  0  0  0  0  0  0  0  0  0
   -0.6053   -0.7709   -2.0351 Ti  0  0  0  0  0  0  0  0  0  0  0  0
    1.9455   -1.5873   -3.4124 Ti  0  0  0  0  0  0  0  0  0  0  0  0
   -1.8782    1.7466   -1.2400 Ti  0  0  0  0  0  0  0  0  0  0  0  0
    2.4125    0.4542   -0.7742 Ti  0  0  0  0  0  0  0  0  0  0  0  0
    0.8177    1.8385   -2.9400 Ti  0  0  0  0  0  0  0  0  0  0  0  0
   -3.6784    1.2814    0.6007 C   0  0  0  0  0  0  0  0  0  0  0  0
    4.1282    0.4828    0.3873 C   0  0  0  0  0  0  0  0  0  0  0  0
    0.4555    2.2672    0.3497 C   0  0  0  0  0  0  0  0  0  0  0  0
   -3.6667    2.1188   -0.3139 C   0  0  0  0  0  0  0  0  0  0  0  0
    4.1160    0.6322    1.6214 C   0  0  0  0  0  0  0  0  0  0  0  0
   -0.6352    2.7410   -0.1189 C   0  0  0  0  0  0  0  0  0  0  0  0
    1.6301    1.7810    0.7342 C   0  0  0  0  0  0  0  0  0  0  0  0
   -3.0935   -1.9569    1.0379 O   0  0  0  0  0  0  0  0  0  0  0  0
   -0.4872   -2.6058    2.7012 O   0  0  0  0  0  0  0  0  0  0  0  0
    0.3141   -2.8889    0.1450 O   0  0  0  0  0  0  0  0  0  0  0  0
   -0.8008   -0.4359    0.9712 O   0  0  0  0  0  0  0  0  0  0  0  0
    1.9029   -1.1583    1.4694 O   0  0  0  0  0  0  0  0  0  0  0  0
   -2.3227   -0.1139    3.0248 O   0  0  0  0  0  0  0  0  0  0  0  0
    1.0138    0.4416    3.5688 O   0  0  0  0  0  0  0  0  0  0  0  0
   -1.7720   -4.5879   -1.6528 O   0  0  0  0  0  0  0  0  0  0  0  0
    0.1906   -1.1892   -3.5340 O   0  0  0  0  0  0  0  0  0  0  0  0
    2.8314   -2.1702   -1.9180 O   0  0  0  0  0  0  0  0  0  0  0  0
   -2.0546   -0.2244   -1.3375 O   0  0  0  0  0  0  0  0  0  0  0  0
    0.7685   -0.3906   -1.0637 O   0  0  0  0  0  0  0  0  0  0  0  0
   -0.9000    1.6493   -2.8186 O   0  0  0  0  0  0  0  0  0  0  0  0
    2.4153    1.3575   -2.2641 O   0  0  0  0  0  0  0  0  0  0  0  0
  1  2  1  0  0  0  0
  2  3  1  0  0  0  0
  3  4  1  0  0  0  0
  3  5  1  0  0  0  0
  5  6  1  0  0  0  0
  6  7  1  0  0  0  0
  7  8  2  0  0  0  0
  5  9  1  0  0  0  0
  7  9  1  0  0  0  0
  3 10  1  0  0  0  0
  9 10  1  0  0  0  0
 10 11  1  0  0  0  0
  6 12  1  0  0  0  0
 12 13  1  0  0  0  0
 13 14  1  0  0  0  0
  1 15  1  0  0  0  0
  1 16  1  0  0  0  0
  1 17  1  0  0  0  0
  2 18  1  0  0  0  0
  2 19  1  0  0  0  0
  4 20  1  0  0  0  0
  4 21  1  0  0  0  0
  4 22  1  0  0  0  0
  5 23  1  0  0  0  0
  6 24  1  0  0  0  0
 10 25  1  0  0  0  0
 11 26  1  0  0  0  0
 12 27  1  0  0  0  0
 12 28  1  0  0  0  0
 13 29  1  0  0  0  0
 13 30  1  0  0  0  0
 31 37  1  0  0  0  0
 37 38  1  0  0  0  0
 33 39  1  0  0  0  0
 34 43  1  0  0  0  0
 41 44  1  0  0  0  0
 40 46  1  0  0  0  0
 43 46  3  0  0  0  0
 35 47  1  0  0  0  0
 44 47  3  0  0  0  0
 40 48  1  0  0  0  0
 45 48  2  0  0  0  0
 35 49  1  0  0  0  0
 41 49  1  0  0  0  0
 45 49  2  0  0  0  0
 31 50  1  0  0  0  0
 34 50  1  0  0  0  0
 31 51  1  0  0  0  0
 32 51  1  0  0  0  0
 32 52  1  0  0  0  0
 33 52  1  0  0  0  0
 32 53  1  0  0  0  0
 34 53  1  0  0  0  0
 32 54  1  0  0  0  0
 35 54  1  0  0  0  0
 34 55  1  0  0  0  0
 36 55  1  0  0  0  0
 35 56  1  0  0  0  0
 36 56  1  0  0  0  0
 37 57  2  0  0  0  0
 38 58  1  0  0  0  0
 39 58  1  0  0  0  0
 33 59  1  0  0  0  0
 39 59  1  0  0  0  0
 38 60  1  0  0  0  0
 40 60  1  0  0  0  0
 38 61  1  0  0  0  0
 41 61  1  0  0  0  0
 40 62  1  0  0  0  0
 42 62  1  0  0  0  0
 41 63  1  0  0  0  0
 42 63  1  0  0  0  0
M  END
