 xtb: 6.7.1pre (5071a88)
          08312621193D

 63 72  0     0  0            999 V2000
   -2.6910    1.8411    9.5279 C   0  0  0  0  0  0  0  0  0  0  0  0
   -1.3601    1.2752    9.0505 C   0  0  0  0  0  0  0  0  0  0  0  0
   -1.2089   -0.2309    9.3430 C   0  0  0  0  0  0  0  0  0  0  0  0
   -2.3193   -1.0547    8.6716 C   0  0  0  0  0  0  0  0  0  0  0  0
    0.1596   -0.8863    9.0285 C   0  0  0  0  0  0  0  0  0  0  0  0
    1.4203   -0.0047    8.9439 C   0  0  0  0  0  0  0  0  0  0  0  0
    1.4302   -0.0980   10.4771 C   0  0  0  0  0  0  0  0  0  0  0  0
    2.0558    0.4035   11.3804 O   0  0  0  0  0  0  0  0  0  0  0  0
    0.3927   -0.9911   10.4860 N   0  0  0  0  0  0  0  0  0  0  0  0
   -0.9583   -0.5632   10.8414 C   0  0  0  0  0  0  0  0  0  0  0  0
   -1.7532   -1.6052   11.4197 O   0  0  0  0  0  0  0  0  0  0  0  0
    2.6192   -0.6463    8.2452 C   0  0  0  0  0  0  0  0  0  0  0  0
    3.8836    0.1907    8.4079 C   0  0  0  0  0  0  0  0  0  0  0  0
    3.7946    1.6880    7.4469 Cl  0  0  0  0  0  0  0  0  0  0  0  0
   -3.5293    1.4356    8.9538 H   0  0  0  0  0  0  0  0  0  0  0  0
   -2.8648    1.6209   10.5855 H   0  0  0  0  0  0  0  0  0  0  0  0
   -2.7029    2.9284    9.4002 H   0  0  0  0  0  0  0  0  0  0  0  0
   -1.2578    1.4577    7.9740 H   0  0  0  0  0  0  0  0  0  0  0  0
   -0.5674    1.8459    9.5476 H   0  0  0  0  0  0  0  0  0  0  0  0
   -2.3577   -0.8512    7.5959 H   0  0  0  0  0  0  0  0  0  0  0  0
   -2.1597   -2.1319    8.7974 H   0  0  0  0  0  0  0  0  0  0  0  0
   -3.3009   -0.8277    9.0993 H   0  0  0  0  0  0  0  0  0  0  0  0
    0.1833   -1.8648    8.5402 H   0  0  0  0  0  0  0  0  0  0  0  0
    1.2335    1.0069    8.5722 H   0  0  0  0  0  0  0  0  0  0  0  0
   -0.9486    0.3071   11.5086 H   0  0  0  0  0  0  0  0  0  0  0  0
   -1.2091   -1.9135   12.1647 H   0  0  0  0  0  0  0  0  0  0  0  0
    2.8053   -1.6428    8.6652 H   0  0  0  0  0  0  0  0  0  0  0  0
    2.3958   -0.7912    7.1812 H   0  0  0  0  0  0  0  0  0  0  0  0
    4.7516   -0.3676    8.0453 H   0  0  0  0  0  0  0  0  0  0  0  0
    4.0636    0.4701    9.4494 H   0  0  0  0  0  0  0  0  0  0  0  0
   -2.1419   -3.0088    2.1197 Ti  0  0  0  0  0  0  0  0  0  0  0  0
    0.2890   -1.6948    1.4324 Ti  0  0  0  0  0  0  0  0  0  0  0  0
    1.9031   -3.0677   -0.7293 Ti  0  0  0  0  0  0  0  0  0  0  0  0
   -2.5215   -0.2519    1.3037 Ti  0  0  0  0  0  0  0  0  0  0  0  0
    2.1420    0.4995    2.2044 Ti  0  0  0  0  0  0  0  0  0  0  0  0
   -0.6814    0.1896    3.6812 Ti  0  0  0  0  0  0  0  0  0  0  0  0
   -2.0368   -3.0777   -1.2005 Ti  0  0  0  0  0  0  0  0  0  0  0  0
   -0.6053   -0.7709   -2.0351 Ti  0  0  0  0  0  0  0  0  0  0  0  0
    1.9455   -1.5873   -3.4124 Ti  0  0  0  0  0  0  0  0  0  0  0  0
   -1.8782    1.7466   -1.2400 Ti  0  0  0  0  0  0  0  0  0  0  0  0
    2.4125    0.4542   -0.7742 Ti  0  0  0  0  0  0  0  0  0  0  0  0
    0.8177    1.8385   -2.9400 Ti  0  0  0  0  0  0  0  0  0  0  0  0
   -3.6784    1.2814    0.6007 C   0  0  0  0  0  0  0  0  0  0  0  0
    4.1282    0.4828    0.3873 C   0  0  0  0  0  0  0  0  0  0  0  0
    0.4555    2.2672    0.3497 C   0  0  0  0  0  0  0  0  0  0  0  0
   -3.6667    2.1188   -0.3139 C   0  0  0  0  0  0  0  0  0  0  0  0
    4.1160    0.6322    1.6214 C   0  0  0  0  0  0  0  0  0  0  0  0
   -0.6352    2.7410   -0.1189 C   0  0  0  0  0  0  0  0  0  0  0  0
    1.6301    1.7810    0.7342 C   0  0  0  0  0  0  0  0  0  0  0  0
   -3.0935   -1.9569    1.0379 O   0  0  0  0  0  0  0  0  0  0  0  0
   -0.4872   -2.6058    2.7012 O   0  0  0  0  0  0  0  0  0  0  0  0
    0.3141   -2.8889    0.1450 O   0  0  0  0  0  0  0  0  0  0  0  0
   -0.8008   -0.4359    0.9712 O   0  0  0  0  0  0  0  0  0  0  0  0
    1.9029   -1.1583    1.4694 O   0  0  0  0  0  0  0  0  0  0  0  0
   -2.3227   -0.1139    3.0248 O   0  0  0  0  0  0  0  0  0  0  0  0
    1.0138    0.4416    3.5688 O   0  0  0  0  0  0  0  0  0  0  0  0
   -1.7720   -4.5879   -1.6528 O   0  0  0  0  0  0  0  0  0  0  0  0
    0.1906   -1.1892   -3.5340 O   0  0  0  0  0  0  0  0  0  0  0  0
    2.8314   -2.1702   -1.9180 O   0  0  0  0  0  0  0  0  0  0  0  0
   -2.0546   -0.2244   -1.3375 O   0  0  0  0  0  0  0  0  0  0  0  0
    0.7685   -0.3906   -1.0637 O   0  0  0  0  0  0  0  0  0  0  0  0
   -0.9000    1.6493   -2.8186 O   0  0  0  0  0  0  0  0  0  0  0  0
    2.4153    1.3575   -2.2641 O   0  0  0  0  0  0  0  0  0  0  0  0
  1  2  1  0  0  0  0
  2  3  1  0  0  0  0
  3  4  1  0  0  0  0
  3  5  1  0  0  0  0
  5  6  1  0  0  0  0
  6  7  1  0  0  0  0
  7  8  2  0  0  0  0
  5  9  1  0  0  0  0
  7  9  1  0  0  0  0
  3 10  1  0  0  0  0
  9 10  1  0  0  0  0
 10 11  1  0  0  0  0
  6 12  1  0  0  0  0
 12 13  1  0  0  0  0
 13 14  1  0  0  0  0
  1 15  1  0  0  0  0
  1 16  1  0  0  0  0
  1 17  1  0  0  0  0
  2 18  1  0  0  0  0
  2 19  1  0  0  0  0
  4 20  1  0  0  0  0
  4 21  1  0  0  0  0
  4 22  1  0  0  0  0
  5 23  1  0  0  0  0
  6 24  1  0  0  0  0
 10 25  1  0  0  0  0
 11 26  1  0  0  0  0
 12 27  1  0  0  0  0
 12 28  1  0  0  0  0
 13 29  1  0  0  0  0
 13 30  1  0  0  0  0
 31 37  1  0  0  0  0
 37 38  1  0  0  0  0
 33 39  1  0  0  0  0
 34 43  1  0  0  0  0
 41 44  1  0  0  0  0
 40 46  1  0  0  0  0
 43 46  3  0  0  0  0
 35 47  1  0  0  0  0
 44 47  3  0  0  0  0
 40 48  1  0  0  0  0
 45 48  2  0  0  0  0
 35 49  1  0  0  0  0
 41 49  1  0  0  0  0
 45 49  2  0  0  0  0
 31 50  1  0  0  0  0
 34 50  1  0  0  0  0
 31 51  1  0  0  0  0
 32 51  1  0  0  0  0
 32 52  1  0  0  0  0
 33 52  1  0  0  0  0
 32 53  1  0  0  0  0
 34 53  1  0  0  0  0
 32 54  1  0  0  0  0
 35 54  1  0  0  0  0
 34 55  1  0  0  0  0
 36 55  1  0  0  0  0
 35 56  1  0  0  0  0
 36 56  1  0  0  0  0
 37 57  2  0  0  0  0
 38 58  1  0  0  0  0
 39 58  1  0  0  0  0
 33 59  1  0  0  0  0
 39 59  1  0  0  0  0
 38 60  1  0  0  0  0
 40 60  1  0  0  0  0
 38 61  1  0  0  0  0
 41 61  1  0  0  0  0
 40 62  1  0  0  0  0
 42 62  1  0  0  0  0
 41 63  1  0  0  0  0
 42 63  1  0  0  0  0
M  END
