 xtb: 6.7.1pre (5071a88)
          08312620543D

 63 74  0     0  0            999 V2000
   -2.6910    1.8411    5.7366 C   0  0  0  0  0  0  0  0  0  0  0  0
   -1.3601    1.2752    5.2592 C   0  0  0  0  0  0  0  0  0  0  0  0
   -1.2089   -0.2309    5.5517 C   0  0  0  0  0  0  0  0  0  0  0  0
   -2.3193   -1.0547    4.8803 C   0  0  0  0  0  0  0  0  0  0  0  0
    0.1596   -0.8863    5.2372 C   0  0  0  0  0  0  0  0  0  0  0  0
    1.4203   -0.0047    5.1526 C   0  0  0  0  0  0  0  0  0  0  0  0
    1.4302   -0.0980    6.6858 C   0  0  0  0  0  0  0  0  0  0  0  0
    2.0558    0.4035    7.5891 O   0  0  0  0  0  0  0  0  0  0  0  0
    0.3927   -0.9911    6.6947 N   0  0  0  0  0  0  0  0  0  0  0  0
   -0.9583   -0.5632    7.0501 C   0  0  0  0  0  0  0  0  0  0  0  0
   -1.7532   -1.6052    7.6284 O   0  0  0  0  0  0  0  0  0  0  0  0
    2.6192   -0.6463    4.4539 C   0  0  0  0  0  0  0  0  0  0  0  0
    3.8836    0.1907    4.6166 C   0  0  0  0  0  0  0  0  0  0  0  0
    3.7946    1.6880    3.6556 Cl  0  0  0  0  0  0  0  0  0  0  0  0
   -3.5293    1.4356    5.1625 H   0  0  0  0  0  0  0  0  0  0  0  0
   -2.8648    1.6209    6.7942 H   0  0  0  0  0  0  0  0  0  0  0  0
   -2.7029    2.9284    5.6089 H   0  0  0  0  0  0  0  0  0  0  0  0
   -1.2578    1.4577    4.1827 H   0  0  0  0  0  0  0  0  0  0  0  0
   -0.5674    1.8459    5.7563 H   0  0  0  0  0  0  0  0  0  0  0  0
   -2.3577   -0.8512    3.8046 H   0  0  0  0  0  0  0  0  0  0  0  0
   -2.1597   -2.1319    5.0061 H   0  0  0  0  0  0  0  0  0  0  0  0
   -3.3009   -0.8277    5.3080 H   0  0  0  0  0  0  0  0  0  0  0  0
    0.1833   -1.8648    4.7489 H   0  0  0  0  0  0  0  0  0  0  0  0
    1.2335    1.0069    4.7809 H   0  0  0  0  0  0  0  0  0  0  0  0
   -0.9486    0.3071    7.7173 H   0  0  0  0  0  0  0  0  0  0  0  0
   -1.2091   -1.9135    8.3734 H   0  0  0  0  0  0  0  0  0  0  0  0
    2.8053   -1.6428    4.8739 H   0  0  0  0  0  0  0  0  0  0  0  0
    2.3958   -0.7912    3.3899 H   0  0  0  0  0  0  0  0  0  0  0  0
    4.7516   -0.3676    4.2540 H   0  0  0  0  0  0  0  0  0  0  0  0
    4.0636    0.4701    5.6581 H   0  0  0  0  0  0  0  0  0  0  0  0
   -3.0000   -2.6000    1.2500 Ti  0  0  0  0  0  0  0  0  0  0  0  0
    0.0000   -2.6000    1.2500 Ti  0  0  0  0  0  0  0  0  0  0  0  0
    3.0000   -2.6000    1.2500 Ti  0  0  0  0  0  0  0  0  0  0  0  0
   -1.5000    0.0000    1.2500 Ti  0  0  0  0  0  0  0  0  0  0  0  0
    1.5000    0.0000    1.2500 Ti  0  0  0  0  0  0  0  0  0  0  0  0
    0.0000    2.6000    1.2500 Ti  0  0  0  0  0  0  0  0  0  0  0  0
   -3.0000   -2.6000   -1.2500 Ti  0  0  0  0  0  0  0  0  0  0  0  0
    0.0000   -2.6000   -1.2500 Ti  0  0  0  0  0  0  0  0  0  0  0  0
    3.0000   -2.6000   -1.2500 Ti  0  0  0  0  0  0  0  0  0  0  0  0
   -1.5000    0.0000   -1.2500 Ti  0  0  0  0  0  0  0  0  0  0  0  0
    1.5000    0.0000   -1.2500 Ti  0  0  0  0  0  0  0  0  0  0  0  0
    0.0000    2.6000   -1.2500 Ti  0  0  0  0  0  0  0  0  0  0  0  0
   -1.5000   -1.3000    0.0000 C   0  0  0  0  0  0  0  0  0  0  0  0
    1.5000   -1.3000    0.0000 C   0  0  0  0  0  0  0  0  0  0  0  0
    0.0000    1.3000    0.0000 C   0  0  0  0  0  0  0  0  0  0  0  0
   -3.0000    0.0000    0.0000 C   0  0  0  0  0  0  0  0  0  0  0  0
    3.0000    0.0000    0.0000 C   0  0  0  0  0  0  0  0  0  0  0  0
   -1.5000    2.6000    0.0000 C   0  0  0  0  0  0  0  0  0  0  0  0
    1.5000    2.6000    0.0000 C   0  0  0  0  0  0  0  0  0  0  0  0
   -3.0000   -2.6000    2.4500 O   0  0  0  0  0  0  0  0  0  0  0  0
    0.0000   -2.6000    2.4500 O   0  0  0  0  0  0  0  0  0  0  0  0
    3.0000   -2.6000    2.4500 O   0  0  0  0  0  0  0  0  0  0  0  0
   -1.5000    0.0000    2.4500 O   0  0  0  0  0  0  0  0  0  0  0  0
    1.5000    0.0000    2.4500 O   0  0  0  0  0  0  0  0  0  0  0  0
   -1.5000    2.6000    2.4500 O   0  0  0  0  0  0  0  0  0  0  0  0
    1.5000    2.6000    2.4500 O   0  0  0  0  0  0  0  0  0  0  0  0
   -3.0000   -2.6000   -2.4500 O   0  0  0  0  0  0  0  0  0  0  0  0
    0.0000   -2.6000   -2.4500 O   0  0  0  0  0  0  0  0  0  0  0  0
    3.0000   -2.6000   -2.4500 O   0  0  0  0  0  0  0  0  0  0  0  0
   -1.5000    0.0000   -2.4500 O   0  0  0  0  0  0  0  0  0  0  0  0
    1.5000    0.0000   -2.4500 O   0  0  0  0  0  0  0  0  0  0  0  0
   -1.5000    2.6000   -2.4500 O   0  0  0  0  0  0  0  0  0  0  0  0
    1.5000    2.6000   -2.4500 O   0  0  0  0  0  0  0  0  0  0  0  0
  1  2  1  0  0  0  0
  2  3  1  0  0  0  0
  3  4  1  0  0  0  0
  3  5  1  0  0  0  0
  5  6  1  0  0  0  0
  6  7  1  0  0  0  0
  7  8  2  0  0  0  0
  5  9  1  0  0  0  0
  7  9  1  0  0  0  0
  3 10  1  0  0  0  0
  9 10  1  0  0  0  0
 10 11  1  0  0  0  0
  6 12  1  0  0  0  0
 12 13  1  0  0  0  0
 13 14  1  0  0  0  0
  1 15  1  0  0  0  0
  1 16  1  0  0  0  0
  1 17  1  0  0  0  0
  2 18  1  0  0  0  0
  2 19  1  0  0  0  0
  4 20  1  0  0  0  0
  4 21  1  0  0  0  0
  4 22  1  0  0  0  0
  5 23  1  0  0  0  0
  6 24  1  0  0  0  0
 10 25  1  0  0  0  0
 11 26  1  0  0  0  0
 12 27  1  0  0  0  0
 12 28  1  0  0  0  0
 13 29  1  0  0  0  0
 13 30  1  0  0  0  0
 31 32  1  0  0  0  0
 32 33  1  0  0  0  0
 31 37  1  0  0  0  0
 32 38  1  0  0  0  0
 37 38  1  0  0  0  0
 33 39  1  0  0  0  0
 38 39  1  0  0  0  0
 34 43  1  0  0  0  0
 40 43  1  0  0  0  0
 35 44  1  0  0  0  0
 41 44  1  0  0  0  0
 36 45  1  0  0  0  0
 42 45  1  0  0  0  0
 34 46  1  0  0  0  0
 40 46  1  0  0  0  0
 43 46  1  0  0  0  0
 35 47  1  0  0  0  0
 41 47  1  0  0  0  0
 44 47  1  0  0  0  0
 36 48  1  0  0  0  0
 42 48  1  0  0  0  0
 45 48  1  0  0  0  0
 36 49  1  0  0  0  0
 42 49  1  0  0  0  0
 45 49  1  0  0  0  0
 31 50  2  0  0  0  0
 32 51  2  0  0  0  0
 33 52  2  0  0  0  0
 34 53  2  0  0  0  0
 35 54  2  0  0  0  0
 36 55  1  0  0  0  0
 48 55  1  0  0  0  0
 36 56  1  0  0  0  0
 49 56  1  0  0  0  0
 37 57  2  0  0  0  0
 38 58  2  0  0  0  0
 39 59  2  0  0  0  0
 40 60  2  0  0  0  0
 41 61  2  0  0  0  0
 42 62  1  0  0  0  0
 48 62  1  0  0  0  0
 42 63  1  0  0  0  0
 49 63  1  0  0  0  0
M  END
