 xtb: 6.7.1pre (5071a88)
          08312620403D

 84103  0     0  0            999 V2000
   -0.8647   -3.9610    4.8565 O   0  0  0  0  0  0  0  0  0  0  0  0
   -1.0690   -2.8230    5.6907 C   0  0  0  0  0  0  0  0  0  0  0  0
   -2.0896   -1.8604    4.9859 C   0  0  0  0  0  0  0  0  0  0  0  0
   -2.6698   -0.7879    5.8233 N   0  0  0  0  0  0  0  0  0  0  0  0
   -2.0234    0.5115    5.5997 C   0  0  0  0  0  0  0  0  0  0  0  0
   -2.7772    1.6687    6.2254 C   0  0  0  0  0  0  0  0  0  0  0  0
   -2.2482    2.2482    7.3957 C   0  0  0  0  0  0  0  0  0  0  0  0
   -2.9008    3.3040    8.0238 C   0  0  0  0  0  0  0  0  0  0  0  0
   -2.3764    3.8340    9.1361 F   0  0  0  0  0  0  0  0  0  0  0  0
   -4.0857    3.8140    7.5163 C   0  0  0  0  0  0  0  0  0  0  0  0
   -4.6284    3.2581    6.3588 C   0  0  0  0  0  0  0  0  0  0  0  0
   -3.9817    2.1913    5.7141 C   0  0  0  0  0  0  0  0  0  0  0  0
   -4.9081    1.4596    3.9743 I   0  0  0  0  0  0  0  0  0  0  0  0
   -2.6916   -1.1850    7.2438 C   0  0  0  0  0  0  0  0  0  0  0  0
   -2.7582   -2.7105    7.4080 C   0  0  0  0  0  0  0  0  0  0  0  0
   -1.5910   -3.3720    6.9042 O   0  0  0  0  0  0  0  0  0  0  0  0
    0.2972   -2.1964    5.8891 C   0  0  0  0  0  0  0  0  0  0  0  0
    0.8723   -1.9852    7.1458 C   0  0  0  0  0  0  0  0  0  0  0  0
    0.2173   -2.3099    8.2697 F   0  0  0  0  0  0  0  0  0  0  0  0
    2.1323   -1.4087    7.2777 C   0  0  0  0  0  0  0  0  0  0  0  0
    2.6532   -1.2259    8.5001 F   0  0  0  0  0  0  0  0  0  0  0  0
    2.8491   -1.0157    6.1563 C   0  0  0  0  0  0  0  0  0  0  0  0
    4.0764   -0.4995    6.3266 F   0  0  0  0  0  0  0  0  0  0  0  0
    2.3225   -1.1911    4.8746 C   0  0  0  0  0  0  0  0  0  0  0  0
    2.9563   -0.7535    3.6951 N   0  0  0  0  0  0  0  0  0  0  0  0
    3.8133    0.3372    3.4367 C   0  0  0  0  0  0  0  0  0  0  0  0
    3.8154    1.5043    4.2201 C   0  0  0  0  0  0  0  0  0  0  0  0
    2.9059    1.6712    5.1945 F   0  0  0  0  0  0  0  0  0  0  0  0
    4.7033    2.5547    3.9846 C   0  0  0  0  0  0  0  0  0  0  0  0
    5.6256    2.4651    2.9476 C   0  0  0  0  0  0  0  0  0  0  0  0
    5.6502    1.3261    2.1453 C   0  0  0  0  0  0  0  0  0  0  0  0
    4.7542    0.2748    2.3889 C   0  0  0  0  0  0  0  0  0  0  0  0
    4.8775   -1.4023    1.1214 I   0  0  0  0  0  0  0  0  0  0  0  0
    1.0510   -1.7882    4.7741 C   0  0  0  0  0  0  0  0  0  0  0  0
    0.5392   -1.9459    3.5409 F   0  0  0  0  0  0  0  0  0  0  0  0
   -1.6351   -4.5224    5.0456 H   0  0  0  0  0  0  0  0  0  0  0  0
   -1.6949   -1.4673    4.0415 H   0  0  0  0  0  0  0  0  0  0  0  0
   -2.9413   -2.4781    4.6653 H   0  0  0  0  0  0  0  0  0  0  0  0
   -1.9307    0.7191    4.5261 H   0  0  0  0  0  0  0  0  0  0  0  0
   -0.9897    0.4969    5.9695 H   0  0  0  0  0  0  0  0  0  0  0  0
   -1.3233    1.8815    7.8335 H   0  0  0  0  0  0  0  0  0  0  0  0
   -4.5789    4.6380    8.0218 H   0  0  0  0  0  0  0  0  0  0  0  0
   -5.5583    3.6659    5.9686 H   0  0  0  0  0  0  0  0  0  0  0  0
   -1.7938   -0.8259    7.7599 H   0  0  0  0  0  0  0  0  0  0  0  0
   -3.5623   -0.7322    7.7305 H   0  0  0  0  0  0  0  0  0  0  0  0
   -3.6414   -3.1270    6.9091 H   0  0  0  0  0  0  0  0  0  0  0  0
   -2.8399   -2.9649    8.4698 H   0  0  0  0  0  0  0  0  0  0  0  0
    2.6861   -1.2706    2.8606 H   0  0  0  0  0  0  0  0  0  0  0  0
    4.6602    3.4388    4.6136 H   0  0  0  0  0  0  0  0  0  0  0  0
    6.3202    3.2806    2.7619 H   0  0  0  0  0  0  0  0  0  0  0  0
    6.3747    1.2670    1.3360 H   0  0  0  0  0  0  0  0  0  0  0  0
   -3.0000   -2.6000    1.2500 Ti  0  0  0  0  0  0  0  0  0  0  0  0
    0.0000   -2.6000    1.2500 Ti  0  0  0  0  0  0  0  0  0  0  0  0
    3.0000   -2.6000    1.2500 Ti  0  0  0  0  0  0  0  0  0  0  0  0
   -1.5000    0.0000    1.2500 Ti  0  0  0  0  0  0  0  0  0  0  0  0
    1.5000    0.0000    1.2500 Ti  0  0  0  0  0  0  0  0  0  0  0  0
    0.0000    2.6000    1.2500 Ti  0  0  0  0  0  0  0  0  0  0  0  0
   -3.0000   -2.6000   -1.2500 Ti  0  0  0  0  0  0  0  0  0  0  0  0
    0.0000   -2.6000   -1.2500 Ti  0  0  0  0  0  0  0  0  0  0  0  0
    3.0000   -2.6000   -1.2500 Ti  0  0  0  0  0  0  0  0  0  0  0  0
   -1.5000    0.0000   -1.2500 Ti  0  0  0  0  0  0  0  0  0  0  0  0
    1.5000    0.0000   -1.2500 Ti  0  0  0  0  0  0  0  0  0  0  0  0
    0.0000    2.6000   -1.2500 Ti  0  0  0  0  0  0  0  0  0  0  0  0
   -1.5000   -1.3000    0.0000 C   0  0  0  0  0  0  0  0  0  0  0  0
    1.5000   -1.3000    0.0000 C   0  0  0  0  0  0  0  0  0  0  0  0
    0.0000    1.3000    0.0000 C   0  0  0  0  0  0  0  0  0  0  0  0
   -3.0000    0.0000    0.0000 C   0  0  0  0  0  0  0  0  0  0  0  0
    3.0000    0.0000    0.0000 C   0  0  0  0  0  0  0  0  0  0  0  0
   -1.5000    2.6000    0.0000 C   0  0  0  0  0  0  0  0  0  0  0  0
    1.5000    2.6000    0.0000 C   0  0  0  0  0  0  0  0  0  0  0  0
   -3.0000   -2.6000    2.4500 O   0  0  0  0  0  0  0  0  0  0  0  0
    0.0000   -2.6000    2.4500 O   0  0  0  0  0  0  0  0  0  0  0  0
    3.0000   -2.6000    2.4500 O   0  0  0  0  0  0  0  0  0  0  0  0
   -1.5000    0.0000    2.4500 O   0  0  0  0  0  0  0  0  0  0  0  0
    1.5000    0.0000    2.4500 O   0  0  0  0  0  0  0  0  0  0  0  0
   -1.5000    2.6000    2.4500 O   0  0  0  0  0  0  0  0  0  0  0  0
    1.5000    2.6000    2.4500 O   0  0  0  0  0  0  0  0  0  0  0  0
   -3.0000   -2.6000   -2.4500 O   0  0  0  0  0  0  0  0  0  0  0  0
    0.0000   -2.6000   -2.4500 O   0  0  0  0  0  0  0  0  0  0  0  0
    3.0000   -2.6000   -2.4500 O   0  0  0  0  0  0  0  0  0  0  0  0
   -1.5000    0.0000   -2.4500 O   0  0  0  0  0  0  0  0  0  0  0  0
    1.5000    0.0000   -2.4500 O   0  0  0  0  0  0  0  0  0  0  0  0
   -1.5000    2.6000   -2.4500 O   0  0  0  0  0  0  0  0  0  0  0  0
    1.5000    2.6000   -2.4500 O   0  0  0  0  0  0  0  0  0  0  0  0
  1  2  1  0  0  0  0
  2  3  1  0  0  0  0
  3  4  1  0  0  0  0
  4  5  1  0  0  0  0
  5  6  1  0  0  0  0
  6  7  4  0  0  0  0
  7  8  4  0  0  0  0
  8  9  1  0  0  0  0
  8 10  4  0  0  0  0
 10 11  4  0  0  0  0
  6 12  4  0  0  0  0
 11 12  4  0  0  0  0
 12 13  1  0  0  0  0
  4 14  1  0  0  0  0
 14 15  1  0  0  0  0
  2 16  1  0  0  0  0
 15 16  1  0  0  0  0
  2 17  1  0  0  0  0
 17 18  4  0  0  0  0
 18 19  1  0  0  0  0
 18 20  4  0  0  0  0
 20 21  1  0  0  0  0
 20 22  4  0  0  0  0
 22 23  1  0  0  0  0
 22 24  4  0  0  0  0
 24 25  1  0  0  0  0
 25 26  1  0  0  0  0
 26 27  4  0  0  0  0
 27 28  1  0  0  0  0
 27 29  4  0  0  0  0
 29 30  4  0  0  0  0
 30 31  4  0  0  0  0
 26 32  4  0  0  0  0
 31 32  4  0  0  0  0
 32 33  1  0  0  0  0
 17 34  4  0  0  0  0
 24 34  4  0  0  0  0
 34 35  1  0  0  0  0
  1 36  1  0  0  0  0
  3 37  1  0  0  0  0
  3 38  1  0  0  0  0
  5 39  1  0  0  0  0
  5 40  1  0  0  0  0
  7 41  1  0  0  0  0
 10 42  1  0  0  0  0
 11 43  1  0  0  0  0
 14 44  1  0  0  0  0
 14 45  1  0  0  0  0
 15 46  1  0  0  0  0
 15 47  1  0  0  0  0
 25 48  1  0  0  0  0
 29 49  1  0  0  0  0
 30 50  1  0  0  0  0
 31 51  1  0  0  0  0
 52 53  1  0  0  0  0
 33 54  1  0  0  0  0
 53 54  1  0  0  0  0
 52 58  1  0  0  0  0
 53 59  1  0  0  0  0
 58 59  1  0  0  0  0
 54 60  1  0  0  0  0
 53 64  1  0  0  0  0
 55 64  1  0  0  0  0
 59 64  1  0  0  0  0
 61 64  1  0  0  0  0
 53 65  1  0  0  0  0
 54 65  1  0  0  0  0
 56 65  1  0  0  0  0
 62 65  1  0  0  0  0
 57 66  1  0  0  0  0
 63 66  1  0  0  0  0
 55 67  1  0  0  0  0
 61 67  1  0  0  0  0
 64 67  1  0  0  0  0
 33 68  1  0  0  0  0
 56 68  1  0  0  0  0
 62 68  1  0  0  0  0
 65 68  1  0  0  0  0
 57 69  1  0  0  0  0
 63 69  1  0  0  0  0
 66 69  1  0  0  0  0
 57 70  1  0  0  0  0
 63 70  1  0  0  0  0
 66 70  1  0  0  0  0
 52 71  2  0  0  0  0
 35 72  1  0  0  0  0
 53 72  2  0  0  0  0
 54 73  2  0  0  0  0
 55 74  2  0  0  0  0
 56 75  2  0  0  0  0
 57 76  1  0  0  0  0
 69 76  1  0  0  0  0
 57 77  1  0  0  0  0
 70 77  1  0  0  0  0
 58 78  2  0  0  0  0
 59 79  2  0  0  0  0
 60 80  2  0  0  0  0
 61 81  2  0  0  0  0
 62 82  2  0  0  0  0
 63 83  1  0  0  0  0
 69 83  1  0  0  0  0
 63 84  1  0  0  0  0
 70 84  1  0  0  0  0
M  END
