 xtb: 6.7.1pre (5071a88)
          08312621573D

 84 95  0     0  0            999 V2000
   -1.0363   -2.3559    9.0863 O   0  0  0  0  0  0  0  0  0  0  0  0
   -0.5035   -1.0633    9.3694 C   0  0  0  0  0  0  0  0  0  0  0  0
   -1.2956   -0.4050   10.5544 C   0  0  0  0  0  0  0  0  0  0  0  0
   -2.6745    0.0404   10.2474 N   0  0  0  0  0  0  0  0  0  0  0  0
   -3.7094   -0.8259   10.8184 C   0  0  0  0  0  0  0  0  0  0  0  0
   -5.0941   -0.2095   10.7780 C   0  0  0  0  0  0  0  0  0  0  0  0
   -6.0103   -0.6996    9.8263 C   0  0  0  0  0  0  0  0  0  0  0  0
   -7.2911   -0.1649    9.7311 C   0  0  0  0  0  0  0  0  0  0  0  0
   -8.1394   -0.6490    8.8151 F   0  0  0  0  0  0  0  0  0  0  0  0
   -7.7003    0.8614   10.5681 C   0  0  0  0  0  0  0  0  0  0  0  0
   -6.8122    1.3628   11.5185 C   0  0  0  0  0  0  0  0  0  0  0  0
   -5.5157    0.8341   11.6259 C   0  0  0  0  0  0  0  0  0  0  0  0
   -4.2880    1.6815   13.1077 I   0  0  0  0  0  0  0  0  0  0  0  0
   -2.8525    0.3338    8.8165 C   0  0  0  0  0  0  0  0  0  0  0  0
   -1.5288    0.7404    8.1575 C   0  0  0  0  0  0  0  0  0  0  0  0
   -0.5979   -0.3441    8.1371 O   0  0  0  0  0  0  0  0  0  0  0  0
    0.9500   -1.2435    9.7624 C   0  0  0  0  0  0  0  0  0  0  0  0
    1.3340   -2.2757   10.6272 C   0  0  0  0  0  0  0  0  0  0  0  0
    0.4088   -3.0922   11.1543 F   0  0  0  0  0  0  0  0  0  0  0  0
    2.6632   -2.4645   10.9882 C   0  0  0  0  0  0  0  0  0  0  0  0
    2.9947   -3.4782   11.8012 F   0  0  0  0  0  0  0  0  0  0  0  0
    3.6453   -1.6046   10.5171 C   0  0  0  0  0  0  0  0  0  0  0  0
    4.9235   -1.8490   10.8464 F   0  0  0  0  0  0  0  0  0  0  0  0
    3.3157   -0.5259    9.6908 C   0  0  0  0  0  0  0  0  0  0  0  0
    4.2426    0.4376    9.2431 N   0  0  0  0  0  0  0  0  0  0  0  0
    5.4380    0.9336    9.8042 C   0  0  0  0  0  0  0  0  0  0  0  0
    5.6901    0.9272   11.1867 C   0  0  0  0  0  0  0  0  0  0  0  0
    4.7367    0.5422   12.0506 F   0  0  0  0  0  0  0  0  0  0  0  0
    6.8982    1.3750   11.7232 C   0  0  0  0  0  0  0  0  0  0  0  0
    7.9001    1.8458   10.8816 C   0  0  0  0  0  0  0  0  0  0  0  0
    7.6852    1.8735    9.5052 C   0  0  0  0  0  0  0  0  0  0  0  0
    6.4680    1.4216    8.9743 C   0  0  0  0  0  0  0  0  0  0  0  0
    6.2476    1.5022    6.8812 I   0  0  0  0  0  0  0  0  0  0  0  0
    1.9599   -0.3676    9.3353 C   0  0  0  0  0  0  0  0  0  0  0  0
    1.6468    0.7009    8.5825 F   0  0  0  0  0  0  0  0  0  0  0  0
   -1.9939   -2.2358    9.0229 H   0  0  0  0  0  0  0  0  0  0  0  0
   -1.2904   -1.0696   11.4279 H   0  0  0  0  0  0  0  0  0  0  0  0
   -0.7554    0.4996   10.8664 H   0  0  0  0  0  0  0  0  0  0  0  0
   -3.4842   -1.0628   11.8660 H   0  0  0  0  0  0  0  0  0  0  0  0
   -3.7188   -1.7985   10.3095 H   0  0  0  0  0  0  0  0  0  0  0  0
   -5.7363   -1.5015    9.1459 H   0  0  0  0  0  0  0  0  0  0  0  0
   -8.7038    1.2645   10.4775 H   0  0  0  0  0  0  0  0  0  0  0  0
   -7.1432    2.1681   12.1707 H   0  0  0  0  0  0  0  0  0  0  0  0
   -3.2385   -0.5471    8.2888 H   0  0  0  0  0  0  0  0  0  0  0  0
   -3.5776    1.1463    8.6994 H   0  0  0  0  0  0  0  0  0  0  0  0
   -1.0713    1.5995    8.6625 H   0  0  0  0  0  0  0  0  0  0  0  0
   -1.7075    1.0340    7.1181 H   0  0  0  0  0  0  0  0  0  0  0  0
    3.9631    0.9126    8.3868 H   0  0  0  0  0  0  0  0  0  0  0  0
    7.0409    1.3562   12.7995 H   0  0  0  0  0  0  0  0  0  0  0  0
    8.8431    2.1939   11.2957 H   0  0  0  0  0  0  0  0  0  0  0  0
    8.4747    2.2452    8.8559 H   0  0  0  0  0  0  0  0  0  0  0  0
   -2.1419   -3.0088    2.1197 Ti  0  0  0  0  0  0  0  0  0  0  0  0
    0.2890   -1.6948    1.4324 Ti  0  0  0  0  0  0  0  0  0  0  0  0
    1.9031   -3.0677   -0.7293 Ti  0  0  0  0  0  0  0  0  0  0  0  0
   -2.5215   -0.2519    1.3037 Ti  0  0  0  0  0  0  0  0  0  0  0  0
    2.1420    0.4995    2.2044 Ti  0  0  0  0  0  0  0  0  0  0  0  0
   -0.6814    0.1896    3.6812 Ti  0  0  0  0  0  0  0  0  0  0  0  0
   -2.0368   -3.0777   -1.2005 Ti  0  0  0  0  0  0  0  0  0  0  0  0
   -0.6053   -0.7709   -2.0351 Ti  0  0  0  0  0  0  0  0  0  0  0  0
    1.9455   -1.5873   -3.4124 Ti  0  0  0  0  0  0  0  0  0  0  0  0
   -1.8782    1.7466   -1.2400 Ti  0  0  0  0  0  0  0  0  0  0  0  0
    2.4125    0.4542   -0.7742 Ti  0  0  0  0  0  0  0  0  0  0  0  0
    0.8177    1.8385   -2.9400 Ti  0  0  0  0  0  0  0  0  0  0  0  0
   -3.6784    1.2814    0.6007 C   0  0  0  0  0  0  0  0  0  0  0  0
    4.1282    0.4828    0.3873 C   0  0  0  0  0  0  0  0  0  0  0  0
    0.4555    2.2672    0.3497 C   0  0  0  0  0  0  0  0  0  0  0  0
   -3.6667    2.1188   -0.3139 C   0  0  0  0  0  0  0  0  0  0  0  0
    4.1160    0.6322    1.6214 C   0  0  0  0  0  0  0  0  0  0  0  0
   -0.6352    2.7410   -0.1189 C   0  0  0  0  0  0  0  0  0  0  0  0
    1.6301    1.7810    0.7342 C   0  0  0  0  0  0  0  0  0  0  0  0
   -3.0935   -1.9569    1.0379 O   0  0  0  0  0  0  0  0  0  0  0  0
   -0.4872   -2.6058    2.7012 O   0  0  0  0  0  0  0  0  0  0  0  0
    0.3141   -2.8889    0.1450 O   0  0  0  0  0  0  0  0  0  0  0  0
   -0.8008   -0.4359    0.9712 O   0  0  0  0  0  0  0  0  0  0  0  0
    1.9029   -1.1583    1.4694 O   0  0  0  0  0  0  0  0  0  0  0  0
   -2.3227   -0.1139    3.0248 O   0  0  0  0  0  0  0  0  0  0  0  0
    1.0138    0.4416    3.5688 O   0  0  0  0  0  0  0  0  0  0  0  0
   -1.7720   -4.5879   -1.6528 O   0  0  0  0  0  0  0  0  0  0  0  0
    0.1906   -1.1892   -3.5340 O   0  0  0  0  0  0  0  0  0  0  0  0
    2.8314   -2.1702   -1.9180 O   0  0  0  0  0  0  0  0  0  0  0  0
   -2.0546   -0.2244   -1.3375 O   0  0  0  0  0  0  0  0  0  0  0  0
    0.7685   -0.3906   -1.0637 O   0  0  0  0  0  0  0  0  0  0  0  0
   -0.9000    1.6493   -2.8186 O   0  0  0  0  0  0  0  0  0  0  0  0
    2.4153    1.3575   -2.2641 O   0  0  0  0  0  0  0  0  0  0  0  0
  1  2  1  0  0  0  0
  2  3  1  0  0  0  0
  3  4  1  0  0  0  0
  4  5  1  0  0  0  0
  5  6  1  0  0  0  0
  6  7  4  0  0  0  0
  7  8  4  0  0  0  0
  8  9  1  0  0  0  0
  8 10  4  0  0  0  0
 10 11  4  0  0  0  0
  6 12  4  0  0  0  0
 11 12  4  0  0  0  0
 12 13  1  0  0  0  0
  4 14  1  0  0  0  0
 14 15  1  0  0  0  0
  2 16  1  0  0  0  0
 15 16  1  0  0  0  0
  2 17  1  0  0  0  0
 17 18  4  0  0  0  0
 18 19  1  0  0  0  0
 18 20  4  0  0  0  0
 20 21  1  0  0  0  0
 20 22  4  0  0  0  0
 22 23  1  0  0  0  0
 22 24  4  0  0  0  0
 24 25  1  0  0  0  0
 25 26  1  0  0  0  0
 26 27  4  0  0  0  0
 27 28  1  0  0  0  0
 27 29  4  0  0  0  0
 29 30  4  0  0  0  0
 30 31  4  0  0  0  0
 26 32  4  0  0  0  0
 31 32  4  0  0  0  0
 32 33  1  0  0  0  0
 17 34  4  0  0  0  0
 24 34  4  0  0  0  0
 34 35  1  0  0  0  0
  1 36  1  0  0  0  0
  3 37  1  0  0  0  0
  3 38  1  0  0  0  0
  5 39  1  0  0  0  0
  5 40  1  0  0  0  0
  7 41  1  0  0  0  0
 10 42  1  0  0  0  0
 11 43  1  0  0  0  0
 14 44  1  0  0  0  0
 14 45  1  0  0  0  0
 15 46  1  0  0  0  0
 15 47  1  0  0  0  0
 25 48  1  0  0  0  0
 29 49  1  0  0  0  0
 30 50  1  0  0  0  0
 31 51  1  0  0  0  0
 52 58  1  0  0  0  0
 58 59  1  0  0  0  0
 54 60  1  0  0  0  0
 55 64  1  0  0  0  0
 62 65  1  0  0  0  0
 61 67  1  0  0  0  0
 64 67  3  0  0  0  0
 56 68  1  0  0  0  0
 65 68  3  0  0  0  0
 61 69  1  0  0  0  0
 66 69  2  0  0  0  0
 56 70  1  0  0  0  0
 62 70  1  0  0  0  0
 66 70  2  0  0  0  0
 52 71  1  0  0  0  0
 55 71  1  0  0  0  0
 52 72  1  0  0  0  0
 53 72  1  0  0  0  0
 53 73  1  0  0  0  0
 54 73  1  0  0  0  0
 53 74  1  0  0  0  0
 55 74  1  0  0  0  0
 53 75  1  0  0  0  0
 56 75  1  0  0  0  0
 55 76  1  0  0  0  0
 57 76  1  0  0  0  0
 56 77  1  0  0  0  0
 57 77  1  0  0  0  0
 58 78  2  0  0  0  0
 59 79  1  0  0  0  0
 60 79  1  0  0  0  0
 54 80  1  0  0  0  0
 60 80  1  0  0  0  0
 59 81  1  0  0  0  0
 61 81  1  0  0  0  0
 59 82  1  0  0  0  0
 62 82  1  0  0  0  0
 61 83  1  0  0  0  0
 63 83  1  0  0  0  0
 62 84  1  0  0  0  0
 63 84  1  0  0  0  0
M  END
