 xtb: 6.7.1pre (5071a88)
          08312621193D

 84 95  0     0  0            999 V2000
   -0.8647   -3.9610   10.9163 O   0  0  0  0  0  0  0  0  0  0  0  0
   -1.0690   -2.8230   11.7506 C   0  0  0  0  0  0  0  0  0  0  0  0
   -2.0896   -1.8604   11.0458 C   0  0  0  0  0  0  0  0  0  0  0  0
   -2.6698   -0.7879   11.8832 N   0  0  0  0  0  0  0  0  0  0  0  0
   -2.0234    0.5115   11.6596 C   0  0  0  0  0  0  0  0  0  0  0  0
   -2.7772    1.6687   12.2853 C   0  0  0  0  0  0  0  0  0  0  0  0
   -2.2482    2.2482   13.4556 C   0  0  0  0  0  0  0  0  0  0  0  0
   -2.9008    3.3040   14.0837 C   0  0  0  0  0  0  0  0  0  0  0  0
   -2.3764    3.8340   15.1960 F   0  0  0  0  0  0  0  0  0  0  0  0
   -4.0857    3.8140   13.5762 C   0  0  0  0  0  0  0  0  0  0  0  0
   -4.6284    3.2581   12.4187 C   0  0  0  0  0  0  0  0  0  0  0  0
   -3.9817    2.1913   11.7740 C   0  0  0  0  0  0  0  0  0  0  0  0
   -4.9081    1.4596   10.0342 I   0  0  0  0  0  0  0  0  0  0  0  0
   -2.6916   -1.1850   13.3036 C   0  0  0  0  0  0  0  0  0  0  0  0
   -2.7582   -2.7105   13.4679 C   0  0  0  0  0  0  0  0  0  0  0  0
   -1.5910   -3.3720   12.9641 O   0  0  0  0  0  0  0  0  0  0  0  0
    0.2972   -2.1964   11.9490 C   0  0  0  0  0  0  0  0  0  0  0  0
    0.8723   -1.9852   13.2056 C   0  0  0  0  0  0  0  0  0  0  0  0
    0.2173   -2.3099   14.3296 F   0  0  0  0  0  0  0  0  0  0  0  0
    2.1323   -1.4087   13.3376 C   0  0  0  0  0  0  0  0  0  0  0  0
    2.6532   -1.2259   14.5599 F   0  0  0  0  0  0  0  0  0  0  0  0
    2.8491   -1.0157   12.2161 C   0  0  0  0  0  0  0  0  0  0  0  0
    4.0764   -0.4995   12.3864 F   0  0  0  0  0  0  0  0  0  0  0  0
    2.3225   -1.1911   10.9345 C   0  0  0  0  0  0  0  0  0  0  0  0
    2.9563   -0.7535    9.7550 N   0  0  0  0  0  0  0  0  0  0  0  0
    3.8133    0.3372    9.4965 C   0  0  0  0  0  0  0  0  0  0  0  0
    3.8154    1.5043   10.2800 C   0  0  0  0  0  0  0  0  0  0  0  0
    2.9059    1.6712   11.2543 F   0  0  0  0  0  0  0  0  0  0  0  0
    4.7033    2.5547   10.0444 C   0  0  0  0  0  0  0  0  0  0  0  0
    5.6256    2.4651    9.0075 C   0  0  0  0  0  0  0  0  0  0  0  0
    5.6502    1.3261    8.2051 C   0  0  0  0  0  0  0  0  0  0  0  0
    4.7542    0.2748    8.4487 C   0  0  0  0  0  0  0  0  0  0  0  0
    4.8775   -1.4023    7.1812 I   0  0  0  0  0  0  0  0  0  0  0  0
    1.0510   -1.7882   10.8340 C   0  0  0  0  0  0  0  0  0  0  0  0
    0.5392   -1.9459    9.6008 F   0  0  0  0  0  0  0  0  0  0  0  0
   -1.6351   -4.5224   11.1055 H   0  0  0  0  0  0  0  0  0  0  0  0
   -1.6949   -1.4673   10.1014 H   0  0  0  0  0  0  0  0  0  0  0  0
   -2.9413   -2.4781   10.7252 H   0  0  0  0  0  0  0  0  0  0  0  0
   -1.9307    0.7191   10.5860 H   0  0  0  0  0  0  0  0  0  0  0  0
   -0.9897    0.4969   12.0294 H   0  0  0  0  0  0  0  0  0  0  0  0
   -1.3233    1.8815   13.8933 H   0  0  0  0  0  0  0  0  0  0  0  0
   -4.5789    4.6380   14.0816 H   0  0  0  0  0  0  0  0  0  0  0  0
   -5.5583    3.6659   12.0285 H   0  0  0  0  0  0  0  0  0  0  0  0
   -1.7938   -0.8259   13.8198 H   0  0  0  0  0  0  0  0  0  0  0  0
   -3.5623   -0.7322   13.7903 H   0  0  0  0  0  0  0  0  0  0  0  0
   -3.6414   -3.1270   12.9689 H   0  0  0  0  0  0  0  0  0  0  0  0
   -2.8399   -2.9649   14.5297 H   0  0  0  0  0  0  0  0  0  0  0  0
    2.6861   -1.2706    8.9204 H   0  0  0  0  0  0  0  0  0  0  0  0
    4.6602    3.4388   10.6735 H   0  0  0  0  0  0  0  0  0  0  0  0
    6.3202    3.2806    8.8217 H   0  0  0  0  0  0  0  0  0  0  0  0
    6.3747    1.2670    7.3959 H   0  0  0  0  0  0  0  0  0  0  0  0
   -2.1419   -3.0088    2.1197 Ti  0  0  0  0  0  0  0  0  0  0  0  0
    0.2890   -1.6948    1.4324 Ti  0  0  0  0  0  0  0  0  0  0  0  0
    1.9031   -3.0677   -0.7293 Ti  0  0  0  0  0  0  0  0  0  0  0  0
   -2.5215   -0.2519    1.3037 Ti  0  0  0  0  0  0  0  0  0  0  0  0
    2.1420    0.4995    2.2044 Ti  0  0  0  0  0  0  0  0  0  0  0  0
   -0.6814    0.1896    3.6812 Ti  0  0  0  0  0  0  0  0  0  0  0  0
   -2.0368   -3.0777   -1.2005 Ti  0  0  0  0  0  0  0  0  0  0  0  0
   -0.6053   -0.7709   -2.0351 Ti  0  0  0  0  0  0  0  0  0  0  0  0
    1.9455   -1.5873   -3.4124 Ti  0  0  0  0  0  0  0  0  0  0  0  0
   -1.8782    1.7466   -1.2400 Ti  0  0  0  0  0  0  0  0  0  0  0  0
    2.4125    0.4542   -0.7742 Ti  0  0  0  0  0  0  0  0  0  0  0  0
    0.8177    1.8385   -2.9400 Ti  0  0  0  0  0  0  0  0  0  0  0  0
   -3.6784    1.2814    0.6007 C   0  0  0  0  0  0  0  0  0  0  0  0
    4.1282    0.4828    0.3873 C   0  0  0  0  0  0  0  0  0  0  0  0
    0.4555    2.2672    0.3497 C   0  0  0  0  0  0  0  0  0  0  0  0
   -3.6667    2.1188   -0.3139 C   0  0  0  0  0  0  0  0  0  0  0  0
    4.1160    0.6322    1.6214 C   0  0  0  0  0  0  0  0  0  0  0  0
   -0.6352    2.7410   -0.1189 C   0  0  0  0  0  0  0  0  0  0  0  0
    1.6301    1.7810    0.7342 C   0  0  0  0  0  0  0  0  0  0  0  0
   -3.0935   -1.9569    1.0379 O   0  0  0  0  0  0  0  0  0  0  0  0
   -0.4872   -2.6058    2.7012 O   0  0  0  0  0  0  0  0  0  0  0  0
    0.3141   -2.8889    0.1450 O   0  0  0  0  0  0  0  0  0  0  0  0
   -0.8008   -0.4359    0.9712 O   0  0  0  0  0  0  0  0  0  0  0  0
    1.9029   -1.1583    1.4694 O   0  0  0  0  0  0  0  0  0  0  0  0
   -2.3227   -0.1139    3.0248 O   0  0  0  0  0  0  0  0  0  0  0  0
    1.0138    0.4416    3.5688 O   0  0  0  0  0  0  0  0  0  0  0  0
   -1.7720   -4.5879   -1.6528 O   0  0  0  0  0  0  0  0  0  0  0  0
    0.1906   -1.1892   -3.5340 O   0  0  0  0  0  0  0  0  0  0  0  0
    2.8314   -2.1702   -1.9180 O   0  0  0  0  0  0  0  0  0  0  0  0
   -2.0546   -0.2244   -1.3375 O   0  0  0  0  0  0  0  0  0  0  0  0
    0.7685   -0.3906   -1.0637 O   0  0  0  0  0  0  0  0  0  0  0  0
   -0.9000    1.6493   -2.8186 O   0  0  0  0  0  0  0  0  0  0  0  0
    2.4153    1.3575   -2.2641 O   0  0  0  0  0  0  0  0  0  0  0  0
  1  2  1  0  0  0  0
  2  3  1  0  0  0  0
  3  4  1  0  0  0  0
  4  5  1  0  0  0  0
  5  6  1  0  0  0  0
  6  7  4  0  0  0  0
  7  8  4  0  0  0  0
  8  9  1  0  0  0  0
  8 10  4  0  0  0  0
 10 11  4  0  0  0  0
  6 12  4  0  0  0  0
 11 12  4  0  0  0  0
 12 13  1  0  0  0  0
  4 14  1  0  0  0  0
 14 15  1  0  0  0  0
  2 16  1  0  0  0  0
 15 16  1  0  0  0  0
  2 17  1  0  0  0  0
 17 18  4  0  0  0  0
 18 19  1  0  0  0  0
 18 20  4  0  0  0  0
 20 21  1  0  0  0  0
 20 22  4  0  0  0  0
 22 23  1  0  0  0  0
 22 24  4  0  0  0  0
 24 25  1  0  0  0  0
 25 26  1  0  0  0  0
 26 27  4  0  0  0  0
 27 28  1  0  0  0  0
 27 29  4  0  0  0  0
 29 30  4  0  0  0  0
 30 31  4  0  0  0  0
 26 32  4  0  0  0  0
 31 32  4  0  0  0  0
 32 33  1  0  0  0  0
 17 34  4  0  0  0  0
 24 34  4  0  0  0  0
 34 35  1  0  0  0  0
  1 36  1  0  0  0  0
  3 37  1  0  0  0  0
  3 38  1  0  0  0  0
  5 39  1  0  0  0  0
  5 40  1  0  0  0  0
  7 41  1  0  0  0  0
 10 42  1  0  0  0  0
 11 43  1  0  0  0  0
 14 44  1  0  0  0  0
 14 45  1  0  0  0  0
 15 46  1  0  0  0  0
 15 47  1  0  0  0  0
 25 48  1  0  0  0  0
 29 49  1  0  0  0  0
 30 50  1  0  0  0  0
 31 51  1  0  0  0  0
 52 58  1  0  0  0  0
 58 59  1  0  0  0  0
 54 60  1  0  0  0  0
 55 64  1  0  0  0  0
 62 65  1  0  0  0  0
 61 67  1  0  0  0  0
 64 67  3  0  0  0  0
 56 68  1  0  0  0  0
 65 68  3  0  0  0  0
 61 69  1  0  0  0  0
 66 69  2  0  0  0  0
 56 70  1  0  0  0  0
 62 70  1  0  0  0  0
 66 70  2  0  0  0  0
 52 71  1  0  0  0  0
 55 71  1  0  0  0  0
 52 72  1  0  0  0  0
 53 72  1  0  0  0  0
 53 73  1  0  0  0  0
 54 73  1  0  0  0  0
 53 74  1  0  0  0  0
 55 74  1  0  0  0  0
 53 75  1  0  0  0  0
 56 75  1  0  0  0  0
 55 76  1  0  0  0  0
 57 76  1  0  0  0  0
 56 77  1  0  0  0  0
 57 77  1  0  0  0  0
 58 78  2  0  0  0  0
 59 79  1  0  0  0  0
 60 79  1  0  0  0  0
 54 80  1  0  0  0  0
 60 80  1  0  0  0  0
 59 81  1  0  0  0  0
 61 81  1  0  0  0  0
 59 82  1  0  0  0  0
 62 82  1  0  0  0  0
 61 83  1  0  0  0  0
 63 83  1  0  0  0  0
 62 84  1  0  0  0  0
 63 84  1  0  0  0  0
M  END
