 xtb: 6.7.1pre (5071a88)
          09012620323D

 33 40  0     0  0            999 V2000
   -1.8350   -2.7651    3.8401 Ti  0  0  0  0  0  0  0  0  0  0  0  0
    0.5898   -1.8820    2.5214 Ti  0  0  0  0  0  0  0  0  0  0  0  0
    1.9181   -3.1825    0.2071 Ti  0  0  0  0  0  0  0  0  0  0  0  0
   -2.2701   -0.2403    2.4470 Ti  0  0  0  0  0  0  0  0  0  0  0  0
    2.5269    0.3855    3.0971 Ti  0  0  0  0  0  0  0  0  0  0  0  0
   -0.1776    0.4290    4.6005 Ti  0  0  0  0  0  0  0  0  0  0  0  0
   -1.8743   -3.2456    0.4133 Ti  0  0  0  0  0  0  0  0  0  0  0  0
   -0.4330   -0.8119   -0.8707 Ti  0  0  0  0  0  0  0  0  0  0  0  0
    1.7932   -1.5247   -2.4780 Ti  0  0  0  0  0  0  0  0  0  0  0  0
   -1.8847    1.6073   -0.0369 Ti  0  0  0  0  0  0  0  0  0  0  0  0
    2.5013    0.4859    0.0991 Ti  0  0  0  0  0  0  0  0  0  0  0  0
    0.7066    1.9976   -1.7616 Ti  0  0  0  0  0  0  0  0  0  0  0  0
   -3.6624    1.0683    1.6926 C   0  0  0  0  0  0  0  0  0  0  0  0
    4.3106    0.4417    1.0899 C   0  0  0  0  0  0  0  0  0  0  0  0
    0.5253    2.0054    1.6025 C   0  0  0  0  0  0  0  0  0  0  0  0
   -3.7215    1.9244    0.7933 C   0  0  0  0  0  0  0  0  0  0  0  0
    4.4246    0.5552    2.3225 C   0  0  0  0  0  0  0  0  0  0  0  0
   -0.7116    2.2722    1.4176 C   0  0  0  0  0  0  0  0  0  0  0  0
    1.8233    1.7321    1.7472 C   0  0  0  0  0  0  0  0  0  0  0  0
   -2.9613   -1.9121    2.7358 O   0  0  0  0  0  0  0  0  0  0  0  0
   -0.0800   -2.5660    4.0027 O   0  0  0  0  0  0  0  0  0  0  0  0
    0.6716   -3.2873    1.4955 O   0  0  0  0  0  0  0  0  0  0  0  0
   -0.6437   -0.8225    1.9864 O   0  0  0  0  0  0  0  0  0  0  0  0
    2.1636   -1.2237    2.4069 O   0  0  0  0  0  0  0  0  0  0  0  0
   -1.8508    0.2381    4.0587 O   0  0  0  0  0  0  0  0  0  0  0  0
    1.5387    0.4683    4.5379 O   0  0  0  0  0  0  0  0  0  0  0  0
   -0.6834   -2.5475   -0.7235 O   0  0  0  0  0  0  0  0  0  0  0  0
    0.1636   -0.7119   -2.5101 O   0  0  0  0  0  0  0  0  0  0  0  0
    2.6558   -2.3198   -1.1357 O   0  0  0  0  0  0  0  0  0  0  0  0
   -1.9404   -0.2226   -0.2522 O   0  0  0  0  0  0  0  0  0  0  0  0
    0.9505   -0.3794    0.0342 O   0  0  0  0  0  0  0  0  0  0  0  0
   -0.9984    2.0408   -1.4855 O   0  0  0  0  0  0  0  0  0  0  0  0
    2.3484    1.4169   -1.3588 O   0  0  0  0  0  0  0  0  0  0  0  0
  1  7  1  0  0  0  0
  4 13  1  0  0  0  0
 11 14  1  0  0  0  0
 10 16  1  0  0  0  0
 13 16  3  0  0  0  0
  5 17  1  0  0  0  0
 14 17  3  0  0  0  0
 10 18  1  0  0  0  0
 15 18  2  0  0  0  0
  5 19  1  0  0  0  0
 11 19  1  0  0  0  0
 15 19  2  0  0  0  0
  1 20  1  0  0  0  0
  4 20  1  0  0  0  0
  1 21  1  0  0  0  0
  2 21  1  0  0  0  0
  2 22  1  0  0  0  0
  3 22  1  0  0  0  0
  2 23  1  0  0  0  0
  4 23  1  0  0  0  0
  2 24  1  0  0  0  0
  5 24  1  0  0  0  0
  4 25  1  0  0  0  0
  6 25  1  0  0  0  0
  5 26  1  0  0  0  0
  6 26  1  0  0  0  0
  7 27  1  0  0  0  0
  8 27  1  0  0  0  0
  8 28  1  0  0  0  0
  9 28  1  0  0  0  0
  3 29  1  0  0  0  0
  9 29  1  0  0  0  0
  8 30  1  0  0  0  0
 10 30  1  0  0  0  0
  8 31  1  0  0  0  0
 11 31  1  0  0  0  0
 10 32  1  0  0  0  0
 12 32  1  0  0  0  0
 11 33  1  0  0  0  0
 12 33  1  0  0  0  0
M  END
