 xtb: 6.7.1pre (5071a88)
          09022620133D

 33 41  0     0  0            999 V2000
   -0.7643   -3.0486    4.7878 Ti  0  0  0  0  0  0  0  0  0  0  0  0
    1.5382   -1.2155    4.7578 Ti  0  0  0  0  0  0  0  0  0  0  0  0
    3.9099   -1.4304    2.6593 Ti  0  0  0  0  0  0  0  0  0  0  0  0
   -2.8377   -1.0437    3.9780 Ti  0  0  0  0  0  0  0  0  0  0  0  0
    1.8815    1.9329    5.3926 Ti  0  0  0  0  0  0  0  0  0  0  0  0
   -0.9108    1.0431    4.9644 Ti  0  0  0  0  0  0  0  0  0  0  0  0
    1.9956   -4.1747    3.3612 Ti  0  0  0  0  0  0  0  0  0  0  0  0
    0.4159   -0.7948    1.8135 Ti  0  0  0  0  0  0  0  0  0  0  0  0
    2.5440   -0.9451   -0.1114 Ti  0  0  0  0  0  0  0  0  0  0  0  0
   -1.7751    1.2560    1.7716 Ti  0  0  0  0  0  0  0  0  0  0  0  0
    2.6933    1.6787    2.4348 Ti  0  0  0  0  0  0  0  0  0  0  0  0
    0.8598    2.0798    0.1345 Ti  0  0  0  0  0  0  0  0  0  0  0  0
   -4.0081   -0.0034    2.6352 C   0  0  0  0  0  0  0  0  0  0  0  0
    4.1405    2.1917    3.8095 C   0  0  0  0  0  0  0  0  0  0  0  0
    0.1184    2.6282    3.4070 C   0  0  0  0  0  0  0  0  0  0  0  0
   -3.8056    0.9380    1.8584 C   0  0  0  0  0  0  0  0  0  0  0  0
    3.8399    2.4625    4.9850 C   0  0  0  0  0  0  0  0  0  0  0  0
   -1.1700    2.3663    3.3656 C   0  0  0  0  0  0  0  0  0  0  0  0
    1.3904    2.9149    3.5503 C   0  0  0  0  0  0  0  0  0  0  0  0
   -2.1461   -2.6887    3.8410 O   0  0  0  0  0  0  0  0  0  0  0  0
    0.8540   -2.6591    5.4821 O   0  0  0  0  0  0  0  0  0  0  0  0
    3.0411   -1.8277    4.1030 O   0  0  0  0  0  0  0  0  0  0  0  0
    0.0279   -0.3184    4.5065 O   0  0  0  0  0  0  0  0  0  0  0  0
    2.2620    0.2249    5.4847 O   0  0  0  0  0  0  0  0  0  0  0  0
   -2.4601    0.2575    5.1588 O   0  0  0  0  0  0  0  0  0  0  0  0
    0.1806    1.9701    5.9954 O   0  0  0  0  0  0  0  0  0  0  0  0
    0.8784   -2.2398    2.5493 O   0  0  0  0  0  0  0  0  0  0  0  0
    0.7825   -0.8927    0.1171 O   0  0  0  0  0  0  0  0  0  0  0  0
    3.9163   -0.9045    0.9919 O   0  0  0  0  0  0  0  0  0  0  0  0
   -1.2278   -0.3825    2.0586 O   0  0  0  0  0  0  0  0  0  0  0  0
    1.5820    0.3390    2.4502 O   0  0  0  0  0  0  0  0  0  0  0  0
   -0.8421    1.8183    0.4321 O   0  0  0  0  0  0  0  0  0  0  0  0
    2.5327    2.1443    0.7446 O   0  0  0  0  0  0  0  0  0  0  0  0
  1  7  1  0  0  0  0
  3  7  1  0  0  0  0
  4 13  1  0  0  0  0
 11 14  1  0  0  0  0
 10 16  1  0  0  0  0
 13 16  3  0  0  0  0
  5 17  1  0  0  0  0
 14 17  3  0  0  0  0
  6 18  1  0  0  0  0
 10 18  1  0  0  0  0
 15 18  2  0  0  0  0
  5 19  1  0  0  0  0
 11 19  1  0  0  0  0
 15 19  2  0  0  0  0
  1 20  1  0  0  0  0
  4 20  1  0  0  0  0
  1 21  1  0  0  0  0
  2 21  1  0  0  0  0
  2 22  1  0  0  0  0
  3 22  1  0  0  0  0
  2 23  1  0  0  0  0
  6 23  1  0  0  0  0
  2 24  1  0  0  0  0
  5 24  1  0  0  0  0
  4 25  1  0  0  0  0
  6 25  1  0  0  0  0
  5 26  1  0  0  0  0
  6 26  1  0  0  0  0
  8 27  1  0  0  0  0
  8 28  1  0  0  0  0
  9 28  1  0  0  0  0
  3 29  1  0  0  0  0
  9 29  1  0  0  0  0
  8 30  1  0  0  0  0
 10 30  1  0  0  0  0
  8 31  1  0  0  0  0
 11 31  1  0  0  0  0
 10 32  1  0  0  0  0
 12 32  1  0  0  0  0
 11 33  1  0  0  0  0
 12 33  1  0  0  0  0
M  END
