 xtb: 6.7.1pre (5071a88)
          09012617053D

 33 41  0     0  0            999 V2000
   -1.7818   -3.0728    3.5256 Ti  0  0  0  0  0  0  0  0  0  0  0  0
    0.5279   -1.7090    2.5236 Ti  0  0  0  0  0  0  0  0  0  0  0  0
    1.8339   -3.1751    0.2194 Ti  0  0  0  0  0  0  0  0  0  0  0  0
   -2.2466   -0.3479    2.6527 Ti  0  0  0  0  0  0  0  0  0  0  0  0
    2.4098    0.5890    3.1769 Ti  0  0  0  0  0  0  0  0  0  0  0  0
   -0.1598    0.2456    4.7721 Ti  0  0  0  0  0  0  0  0  0  0  0  0
   -2.0477   -3.1505    0.1608 Ti  0  0  0  0  0  0  0  0  0  0  0  0
   -0.4391   -0.8386   -0.8604 Ti  0  0  0  0  0  0  0  0  0  0  0  0
    1.7094   -1.7034   -2.5322 Ti  0  0  0  0  0  0  0  0  0  0  0  0
   -1.7728    1.5726   -0.0183 Ti  0  0  0  0  0  0  0  0  0  0  0  0
    2.5176    0.5105    0.1471 Ti  0  0  0  0  0  0  0  0  0  0  0  0
    0.7672    1.8718   -1.8914 Ti  0  0  0  0  0  0  0  0  0  0  0  0
   -3.5071    1.1177    2.0058 C   0  0  0  0  0  0  0  0  0  0  0  0
    4.2807    0.4776    1.2327 C   0  0  0  0  0  0  0  0  0  0  0  0
    0.6016    2.2831    1.4032 C   0  0  0  0  0  0  0  0  0  0  0  0
   -3.5153    1.8679    1.0201 C   0  0  0  0  0  0  0  0  0  0  0  0
    4.3442    0.6780    2.4576 C   0  0  0  0  0  0  0  0  0  0  0  0
   -0.5723    2.6839    1.1026 C   0  0  0  0  0  0  0  0  0  0  0  0
    1.8289    1.8537    1.6980 C   0  0  0  0  0  0  0  0  0  0  0  0
   -2.8969   -2.0063    2.4444 O   0  0  0  0  0  0  0  0  0  0  0  0
   -0.1143   -2.6509    3.8898 O   0  0  0  0  0  0  0  0  0  0  0  0
    0.4643   -3.0264    1.3845 O   0  0  0  0  0  0  0  0  0  0  0  0
   -0.6233   -0.5146    2.0503 O   0  0  0  0  0  0  0  0  0  0  0  0
    2.0975   -1.0796    2.5323 O   0  0  0  0  0  0  0  0  0  0  0  0
   -1.8283   -0.2570    4.3696 O   0  0  0  0  0  0  0  0  0  0  0  0
    1.4938    0.7120    4.6905 O   0  0  0  0  0  0  0  0  0  0  0  0
   -0.7781   -2.6771   -0.8407 O   0  0  0  0  0  0  0  0  0  0  0  0
    0.1407   -0.7879   -2.5201 O   0  0  0  0  0  0  0  0  0  0  0  0
    2.6237   -2.4874   -1.1681 O   0  0  0  0  0  0  0  0  0  0  0  0
   -1.9209   -0.3202   -0.1724 O   0  0  0  0  0  0  0  0  0  0  0  0
    0.9681   -0.3921    0.0332 O   0  0  0  0  0  0  0  0  0  0  0  0
   -0.9401    1.8033   -1.5779 O   0  0  0  0  0  0  0  0  0  0  0  0
    2.4188    1.3537   -1.3751 O   0  0  0  0  0  0  0  0  0  0  0  0
  1  7  1  0  0  0  0
  3  9  1  0  0  0  0
  4 13  1  0  0  0  0
 11 14  1  0  0  0  0
 10 16  1  0  0  0  0
 13 16  3  0  0  0  0
  5 17  1  0  0  0  0
 14 17  3  0  0  0  0
 10 18  1  0  0  0  0
 15 18  2  0  0  0  0
  5 19  1  0  0  0  0
 11 19  1  0  0  0  0
 15 19  2  0  0  0  0
  1 20  1  0  0  0  0
  4 20  1  0  0  0  0
  1 21  1  0  0  0  0
  2 21  1  0  0  0  0
  2 22  1  0  0  0  0
  3 22  1  0  0  0  0
  2 23  1  0  0  0  0
  4 23  1  0  0  0  0
  2 24  1  0  0  0  0
  5 24  1  0  0  0  0
  4 25  1  0  0  0  0
  6 25  1  0  0  0  0
  5 26  1  0  0  0  0
  6 26  1  0  0  0  0
  7 27  1  0  0  0  0
  8 27  1  0  0  0  0
  8 28  1  0  0  0  0
  9 28  1  0  0  0  0
  3 29  1  0  0  0  0
  9 29  1  0  0  0  0
  8 30  1  0  0  0  0
 10 30  1  0  0  0  0
  8 31  1  0  0  0  0
 11 31  1  0  0  0  0
 10 32  1  0  0  0  0
 12 32  1  0  0  0  0
 11 33  1  0  0  0  0
 12 33  1  0  0  0  0
M  END
