 xtb: 6.7.1pre (5071a88)
          08312622023D

 86 95  0     0  0            999 V2000
    3.6644   -2.3105    9.9116 C   0  0  0  0  0  0  0  0  0  0  0  0
    3.7307   -1.1807    8.9001 C   0  0  0  0  0  0  0  0  0  0  0  0
    4.6484   -1.6241    7.7871 C   0  0  0  0  0  0  0  0  0  0  0  0
    4.2588    0.0788    9.5545 C   0  0  0  0  0  0  0  0  0  0  0  0
    3.3892    0.5190   10.6772 C   0  0  0  0  0  0  0  0  0  0  0  0
    2.0285    0.8268   10.3525 N   0  0  0  0  0  0  0  0  0  0  0  0
    0.8947    0.2510   10.9389 C   0  0  0  0  0  0  0  0  0  0  0  0
    0.9414   -0.6385   11.8540 O   0  0  0  0  0  0  0  0  0  0  0  0
   -0.5032    0.6409   10.5312 C   0  0  0  0  0  0  0  0  0  0  0  0
   -0.6753    0.4239    9.0678 C   0  0  0  0  0  0  0  0  0  0  0  0
   -1.9899    0.7568    8.5124 C   0  0  0  0  0  0  0  0  0  0  0  0
   -2.1945    2.0592    8.0573 C   0  0  0  0  0  0  0  0  0  0  0  0
   -3.4094    2.3875    7.5368 C   0  0  0  0  0  0  0  0  0  0  0  0
   -4.4318    1.4772    7.4483 C   0  0  0  0  0  0  0  0  0  0  0  0
   -4.2605    0.1841    7.8892 C   0  0  0  0  0  0  0  0  0  0  0  0
   -3.0375   -0.1726    8.4210 C   0  0  0  0  0  0  0  0  0  0  0  0
   -1.4664   -0.1182   11.3016 N   0  0  0  0  0  0  0  0  0  0  0  0
   -2.3382    0.4453   12.2565 C   0  0  0  0  0  0  0  0  0  0  0  0
   -2.3450    1.6954   12.5201 O   0  0  0  0  0  0  0  0  0  0  0  0
   -3.2738   -0.4081   12.9827 C   0  0  0  0  0  0  0  0  0  0  0  0
   -4.1456    0.0841   13.9236 C   0  0  0  0  0  0  0  0  0  0  0  0
   -5.0029   -0.7295   14.5833 N   0  0  0  0  0  0  0  0  0  0  0  0
   -5.0068   -2.0630   14.3140 C   0  0  0  0  0  0  0  0  0  0  0  0
   -4.1282   -2.5881   13.3596 C   0  0  0  0  0  0  0  0  0  0  0  0
   -3.3031   -1.7292   12.7404 N   0  0  0  0  0  0  0  0  0  0  0  0
    4.0067    1.8784   11.2742 B   0  0  0  0  0  0  0  0  0  0  0  0
    3.4103    2.5331   12.4558 O   0  0  0  0  0  0  0  0  0  0  0  0
    4.6377    2.7747   10.3007 O   0  0  0  0  0  0  0  0  0  0  0  0
    3.5065   -3.2579    9.3216 H   0  0  0  0  0  0  0  0  0  0  0  0
    2.7648   -2.2367   10.5576 H   0  0  0  0  0  0  0  0  0  0  0  0
    4.6096   -2.4587   10.4563 H   0  0  0  0  0  0  0  0  0  0  0  0
    2.6816   -1.0662    8.5567 H   0  0  0  0  0  0  0  0  0  0  0  0
    5.4127   -0.8231    7.5992 H   0  0  0  0  0  0  0  0  0  0  0  0
    5.2363   -2.5145    8.0842 H   0  0  0  0  0  0  0  0  0  0  0  0
    4.0474   -1.8379    6.8812 H   0  0  0  0  0  0  0  0  0  0  0  0
    5.2273   -0.2646   10.0312 H   0  0  0  0  0  0  0  0  0  0  0  0
    4.5752    0.8363    8.8413 H   0  0  0  0  0  0  0  0  0  0  0  0
    3.4420   -0.2395   11.4863 H   0  0  0  0  0  0  0  0  0  0  0  0
    1.8584    1.5582    9.6000 H   0  0  0  0  0  0  0  0  0  0  0  0
   -0.6171    1.6882   10.8527 H   0  0  0  0  0  0  0  0  0  0  0  0
   -0.4945   -0.6628    8.8586 H   0  0  0  0  0  0  0  0  0  0  0  0
    0.1167    0.9369    8.4599 H   0  0  0  0  0  0  0  0  0  0  0  0
   -1.4222    2.8113    8.1051 H   0  0  0  0  0  0  0  0  0  0  0  0
   -3.5718    3.4026    7.1811 H   0  0  0  0  0  0  0  0  0  0  0  0
   -5.3678    1.8017    7.0253 H   0  0  0  0  0  0  0  0  0  0  0  0
   -5.0692   -0.5302    7.8183 H   0  0  0  0  0  0  0  0  0  0  0  0
   -2.8790   -1.1834    8.7748 H   0  0  0  0  0  0  0  0  0  0  0  0
   -1.5138   -1.1330   11.1380 H   0  0  0  0  0  0  0  0  0  0  0  0
   -4.1069    1.1541   14.1060 H   0  0  0  0  0  0  0  0  0  0  0  0
   -5.6863   -2.7266   14.8343 H   0  0  0  0  0  0  0  0  0  0  0  0
   -4.1057   -3.6395   13.1234 H   0  0  0  0  0  0  0  0  0  0  0  0
    3.2186    1.8422   13.1359 H   0  0  0  0  0  0  0  0  0  0  0  0
    4.0382    3.0897    9.6073 H   0  0  0  0  0  0  0  0  0  0  0  0
   -2.1419   -3.0088    2.1197 Ti  0  0  0  0  0  0  0  0  0  0  0  0
    0.2890   -1.6948    1.4324 Ti  0  0  0  0  0  0  0  0  0  0  0  0
    1.9031   -3.0677   -0.7293 Ti  0  0  0  0  0  0  0  0  0  0  0  0
   -2.5215   -0.2519    1.3037 Ti  0  0  0  0  0  0  0  0  0  0  0  0
    2.1420    0.4995    2.2044 Ti  0  0  0  0  0  0  0  0  0  0  0  0
   -0.6814    0.1896    3.6812 Ti  0  0  0  0  0  0  0  0  0  0  0  0
   -2.0368   -3.0777   -1.2005 Ti  0  0  0  0  0  0  0  0  0  0  0  0
   -0.6053   -0.7709   -2.0351 Ti  0  0  0  0  0  0  0  0  0  0  0  0
    1.9455   -1.5873   -3.4124 Ti  0  0  0  0  0  0  0  0  0  0  0  0
   -1.8782    1.7466   -1.2400 Ti  0  0  0  0  0  0  0  0  0  0  0  0
    2.4125    0.4542   -0.7742 Ti  0  0  0  0  0  0  0  0  0  0  0  0
    0.8177    1.8385   -2.9400 Ti  0  0  0  0  0  0  0  0  0  0  0  0
   -3.6784    1.2814    0.6007 C   0  0  0  0  0  0  0  0  0  0  0  0
    4.1282    0.4828    0.3873 C   0  0  0  0  0  0  0  0  0  0  0  0
    0.4555    2.2672    0.3497 C   0  0  0  0  0  0  0  0  0  0  0  0
   -3.6667    2.1188   -0.3139 C   0  0  0  0  0  0  0  0  0  0  0  0
    4.1160    0.6322    1.6214 C   0  0  0  0  0  0  0  0  0  0  0  0
   -0.6352    2.7410   -0.1189 C   0  0  0  0  0  0  0  0  0  0  0  0
    1.6301    1.7810    0.7342 C   0  0  0  0  0  0  0  0  0  0  0  0
   -3.0935   -1.9569    1.0379 O   0  0  0  0  0  0  0  0  0  0  0  0
   -0.4872   -2.6058    2.7012 O   0  0  0  0  0  0  0  0  0  0  0  0
    0.3141   -2.8889    0.1450 O   0  0  0  0  0  0  0  0  0  0  0  0
   -0.8008   -0.4359    0.9712 O   0  0  0  0  0  0  0  0  0  0  0  0
    1.9029   -1.1583    1.4694 O   0  0  0  0  0  0  0  0  0  0  0  0
   -2.3227   -0.1139    3.0248 O   0  0  0  0  0  0  0  0  0  0  0  0
    1.0138    0.4416    3.5688 O   0  0  0  0  0  0  0  0  0  0  0  0
   -1.7720   -4.5879   -1.6528 O   0  0  0  0  0  0  0  0  0  0  0  0
    0.1906   -1.1892   -3.5340 O   0  0  0  0  0  0  0  0  0  0  0  0
    2.8314   -2.1702   -1.9180 O   0  0  0  0  0  0  0  0  0  0  0  0
   -2.0546   -0.2244   -1.3375 O   0  0  0  0  0  0  0  0  0  0  0  0
    0.7685   -0.3906   -1.0637 O   0  0  0  0  0  0  0  0  0  0  0  0
   -0.9000    1.6493   -2.8186 O   0  0  0  0  0  0  0  0  0  0  0  0
    2.4153    1.3575   -2.2641 O   0  0  0  0  0  0  0  0  0  0  0  0
  1  2  1  0  0  0  0
  2  3  1  0  0  0  0
  2  4  1  0  0  0  0
  4  5  1  0  0  0  0
  5  6  1  0  0  0  0
  6  7  4  0  0  0  0
  7  8  2  0  0  0  0
  7  9  1  0  0  0  0
  9 10  1  0  0  0  0
 10 11  1  0  0  0  0
 11 12  4  0  0  0  0
 12 13  4  0  0  0  0
 13 14  4  0  0  0  0
 14 15  4  0  0  0  0
 11 16  4  0  0  0  0
 15 16  4  0  0  0  0
  9 17  1  0  0  0  0
 17 18  4  0  0  0  0
 18 19  2  0  0  0  0
 18 20  1  0  0  0  0
 20 21  4  0  0  0  0
 21 22  4  0  0  0  0
 22 23  4  0  0  0  0
 23 24  4  0  0  0  0
 20 25  4  0  0  0  0
 24 25  4  0  0  0  0
  5 26  1  0  0  0  0
 26 27  1  0  0  0  0
 26 28  1  0  0  0  0
  1 29  1  0  0  0  0
  1 30  1  0  0  0  0
  1 31  1  0  0  0  0
  2 32  1  0  0  0  0
  3 33  1  0  0  0  0
  3 34  1  0  0  0  0
  3 35  1  0  0  0  0
  4 36  1  0  0  0  0
  4 37  1  0  0  0  0
  5 38  1  0  0  0  0
  6 39  1  0  0  0  0
  9 40  1  0  0  0  0
 10 41  1  0  0  0  0
 10 42  1  0  0  0  0
 12 43  1  0  0  0  0
 13 44  1  0  0  0  0
 14 45  1  0  0  0  0
 15 46  1  0  0  0  0
 16 47  1  0  0  0  0
 17 48  1  0  0  0  0
 21 49  1  0  0  0  0
 23 50  1  0  0  0  0
 24 51  1  0  0  0  0
 27 52  1  0  0  0  0
 28 53  1  0  0  0  0
 54 60  1  0  0  0  0
 60 61  1  0  0  0  0
 56 62  1  0  0  0  0
 57 66  1  0  0  0  0
 64 67  1  0  0  0  0
 63 69  1  0  0  0  0
 66 69  3  0  0  0  0
 58 70  1  0  0  0  0
 67 70  3  0  0  0  0
 63 71  1  0  0  0  0
 68 71  2  0  0  0  0
 58 72  1  0  0  0  0
 64 72  1  0  0  0  0
 68 72  2  0  0  0  0
 54 73  1  0  0  0  0
 57 73  1  0  0  0  0
 54 74  1  0  0  0  0
 55 74  1  0  0  0  0
 55 75  1  0  0  0  0
 56 75  1  0  0  0  0
 55 76  1  0  0  0  0
 57 76  1  0  0  0  0
 55 77  1  0  0  0  0
 58 77  1  0  0  0  0
 57 78  1  0  0  0  0
 59 78  1  0  0  0  0
 58 79  1  0  0  0  0
 59 79  1  0  0  0  0
 60 80  2  0  0  0  0
 61 81  1  0  0  0  0
 62 81  1  0  0  0  0
 56 82  1  0  0  0  0
 62 82  1  0  0  0  0
 61 83  1  0  0  0  0
 63 83  1  0  0  0  0
 61 84  1  0  0  0  0
 64 84  1  0  0  0  0
 63 85  1  0  0  0  0
 65 85  1  0  0  0  0
 64 86  1  0  0  0  0
 65 86  1  0  0  0  0
M  END
