 xtb: 6.7.1pre (5071a88)
          08312620533D

 86 96  0     0  0            999 V2000
   -4.6451    1.0442    5.5280 C   0  0  0  0  0  0  0  0  0  0  0  0
   -4.3899   -0.2734    4.8651 C   0  0  0  0  0  0  0  0  0  0  0  0
   -5.1691   -0.3111    3.5669 C   0  0  0  0  0  0  0  0  0  0  0  0
   -2.9360   -0.4830    4.5272 C   0  0  0  0  0  0  0  0  0  0  0  0
   -2.0563   -0.4459    5.7578 C   0  0  0  0  0  0  0  0  0  0  0  0
   -0.6847   -0.6568    5.3236 N   0  0  0  0  0  0  0  0  0  0  0  0
    0.3306    0.3123    5.5429 C   0  0  0  0  0  0  0  0  0  0  0  0
   -0.0484    1.3772    6.1408 O   0  0  0  0  0  0  0  0  0  0  0  0
    1.7422    0.1324    5.1176 C   0  0  0  0  0  0  0  0  0  0  0  0
    2.4855   -0.8397    6.0095 C   0  0  0  0  0  0  0  0  0  0  0  0
    1.9315   -2.1874    6.0686 C   0  0  0  0  0  0  0  0  0  0  0  0
    1.0116   -2.4597    7.0893 C   0  0  0  0  0  0  0  0  0  0  0  0
    0.4612   -3.7136    7.1880 C   0  0  0  0  0  0  0  0  0  0  0  0
    0.8281   -4.6889    6.2721 C   0  0  0  0  0  0  0  0  0  0  0  0
    1.7369   -4.4385    5.2550 C   0  0  0  0  0  0  0  0  0  0  0  0
    2.2834   -3.1707    5.1676 C   0  0  0  0  0  0  0  0  0  0  0  0
    2.3670    1.4379    5.4480 N   0  0  0  0  0  0  0  0  0  0  0  0
    3.0313    2.2044    4.4601 C   0  0  0  0  0  0  0  0  0  0  0  0
    3.0815    1.7578    3.2984 O   0  0  0  0  0  0  0  0  0  0  0  0
    3.6284    3.4873    4.8519 C   0  0  0  0  0  0  0  0  0  0  0  0
    4.2730    4.2173    3.8631 C   0  0  0  0  0  0  0  0  0  0  0  0
    4.8162    5.3913    4.2345 N   0  0  0  0  0  0  0  0  0  0  0  0
    4.7519    5.8536    5.4865 C   0  0  0  0  0  0  0  0  0  0  0  0
    4.1050    5.1127    6.4608 C   0  0  0  0  0  0  0  0  0  0  0  0
    3.5522    3.9353    6.1205 N   0  0  0  0  0  0  0  0  0  0  0  0
   -2.5125   -1.5400    6.8004 B   0  0  0  0  0  0  0  0  0  0  0  0
   -2.2813   -1.4032    8.2360 O   0  0  0  0  0  0  0  0  0  0  0  0
   -3.2096   -2.7209    6.2969 O   0  0  0  0  0  0  0  0  0  0  0  0
   -5.7496    1.0828    5.7315 H   0  0  0  0  0  0  0  0  0  0  0  0
   -4.1739    1.1428    6.5198 H   0  0  0  0  0  0  0  0  0  0  0  0
   -4.4341    1.8924    4.8585 H   0  0  0  0  0  0  0  0  0  0  0  0
   -4.7620   -1.0923    5.5116 H   0  0  0  0  0  0  0  0  0  0  0  0
   -5.6133   -1.3191    3.4148 H   0  0  0  0  0  0  0  0  0  0  0  0
   -4.4970   -0.0260    2.7288 H   0  0  0  0  0  0  0  0  0  0  0  0
   -5.9701    0.4508    3.5906 H   0  0  0  0  0  0  0  0  0  0  0  0
   -2.6457    0.2822    3.8029 H   0  0  0  0  0  0  0  0  0  0  0  0
   -2.8461   -1.4885    4.0668 H   0  0  0  0  0  0  0  0  0  0  0  0
   -2.1587    0.5399    6.2563 H   0  0  0  0  0  0  0  0  0  0  0  0
   -0.4681   -1.5500    4.8314 H   0  0  0  0  0  0  0  0  0  0  0  0
    1.8698   -0.1233    4.0596 H   0  0  0  0  0  0  0  0  0  0  0  0
    2.5099   -0.3432    7.0258 H   0  0  0  0  0  0  0  0  0  0  0  0
    3.5418   -0.8152    5.6605 H   0  0  0  0  0  0  0  0  0  0  0  0
    0.7248   -1.6980    7.8049 H   0  0  0  0  0  0  0  0  0  0  0  0
   -0.2530   -3.9296    7.9784 H   0  0  0  0  0  0  0  0  0  0  0  0
    0.4079   -5.7001    6.3222 H   0  0  0  0  0  0  0  0  0  0  0  0
    2.0106   -5.2145    4.5490 H   0  0  0  0  0  0  0  0  0  0  0  0
    2.9821   -2.9497    4.3991 H   0  0  0  0  0  0  0  0  0  0  0  0
    2.2704    1.7234    6.4473 H   0  0  0  0  0  0  0  0  0  0  0  0
    4.3307    3.8463    2.8342 H   0  0  0  0  0  0  0  0  0  0  0  0
    5.1909    6.8018    5.7850 H   0  0  0  0  0  0  0  0  0  0  0  0
    4.0295    5.4492    7.4862 H   0  0  0  0  0  0  0  0  0  0  0  0
   -2.2468   -0.4287    8.4536 H   0  0  0  0  0  0  0  0  0  0  0  0
   -2.5350   -3.4644    6.4044 H   0  0  0  0  0  0  0  0  0  0  0  0
   -3.0000   -2.6000    1.2500 Ti  0  0  0  0  0  0  0  0  0  0  0  0
    0.0000   -2.6000    1.2500 Ti  0  0  0  0  0  0  0  0  0  0  0  0
    3.0000   -2.6000    1.2500 Ti  0  0  0  0  0  0  0  0  0  0  0  0
   -1.5000    0.0000    1.2500 Ti  0  0  0  0  0  0  0  0  0  0  0  0
    1.5000    0.0000    1.2500 Ti  0  0  0  0  0  0  0  0  0  0  0  0
    0.0000    2.6000    1.2500 Ti  0  0  0  0  0  0  0  0  0  0  0  0
   -3.0000   -2.6000   -1.2500 Ti  0  0  0  0  0  0  0  0  0  0  0  0
    0.0000   -2.6000   -1.2500 Ti  0  0  0  0  0  0  0  0  0  0  0  0
    3.0000   -2.6000   -1.2500 Ti  0  0  0  0  0  0  0  0  0  0  0  0
   -1.5000    0.0000   -1.2500 Ti  0  0  0  0  0  0  0  0  0  0  0  0
    1.5000    0.0000   -1.2500 Ti  0  0  0  0  0  0  0  0  0  0  0  0
    0.0000    2.6000   -1.2500 Ti  0  0  0  0  0  0  0  0  0  0  0  0
   -1.5000   -1.3000    0.0000 C   0  0  0  0  0  0  0  0  0  0  0  0
    1.5000   -1.3000    0.0000 C   0  0  0  0  0  0  0  0  0  0  0  0
    0.0000    1.3000    0.0000 C   0  0  0  0  0  0  0  0  0  0  0  0
   -3.0000    0.0000    0.0000 C   0  0  0  0  0  0  0  0  0  0  0  0
    3.0000    0.0000    0.0000 C   0  0  0  0  0  0  0  0  0  0  0  0
   -1.5000    2.6000    0.0000 C   0  0  0  0  0  0  0  0  0  0  0  0
    1.5000    2.6000    0.0000 C   0  0  0  0  0  0  0  0  0  0  0  0
   -3.0000   -2.6000    2.4500 O   0  0  0  0  0  0  0  0  0  0  0  0
    0.0000   -2.6000    2.4500 O   0  0  0  0  0  0  0  0  0  0  0  0
    3.0000   -2.6000    2.4500 O   0  0  0  0  0  0  0  0  0  0  0  0
   -1.5000    0.0000    2.4500 O   0  0  0  0  0  0  0  0  0  0  0  0
    1.5000    0.0000    2.4500 O   0  0  0  0  0  0  0  0  0  0  0  0
   -1.5000    2.6000    2.4500 O   0  0  0  0  0  0  0  0  0  0  0  0
    1.5000    2.6000    2.4500 O   0  0  0  0  0  0  0  0  0  0  0  0
   -3.0000   -2.6000   -2.4500 O   0  0  0  0  0  0  0  0  0  0  0  0
    0.0000   -2.6000   -2.4500 O   0  0  0  0  0  0  0  0  0  0  0  0
    3.0000   -2.6000   -2.4500 O   0  0  0  0  0  0  0  0  0  0  0  0
   -1.5000    0.0000   -2.4500 O   0  0  0  0  0  0  0  0  0  0  0  0
    1.5000    0.0000   -2.4500 O   0  0  0  0  0  0  0  0  0  0  0  0
   -1.5000    2.6000   -2.4500 O   0  0  0  0  0  0  0  0  0  0  0  0
    1.5000    2.6000   -2.4500 O   0  0  0  0  0  0  0  0  0  0  0  0
  1  2  1  0  0  0  0
  2  3  1  0  0  0  0
  2  4  1  0  0  0  0
  4  5  1  0  0  0  0
  5  6  1  0  0  0  0
  6  7  4  0  0  0  0
  7  8  2  0  0  0  0
  7  9  1  0  0  0  0
  9 10  1  0  0  0  0
 10 11  1  0  0  0  0
 11 12  4  0  0  0  0
 12 13  4  0  0  0  0
 13 14  4  0  0  0  0
 14 15  4  0  0  0  0
 11 16  4  0  0  0  0
 15 16  4  0  0  0  0
  9 17  1  0  0  0  0
 17 18  4  0  0  0  0
 18 19  2  0  0  0  0
 18 20  1  0  0  0  0
 20 21  4  0  0  0  0
 21 22  4  0  0  0  0
 22 23  4  0  0  0  0
 23 24  4  0  0  0  0
 20 25  4  0  0  0  0
 24 25  4  0  0  0  0
  5 26  1  0  0  0  0
 26 27  1  0  0  0  0
 26 28  1  0  0  0  0
  1 29  1  0  0  0  0
  1 30  1  0  0  0  0
  1 31  1  0  0  0  0
  2 32  1  0  0  0  0
  3 33  1  0  0  0  0
  3 34  1  0  0  0  0
  3 35  1  0  0  0  0
  4 36  1  0  0  0  0
  4 37  1  0  0  0  0
  5 38  1  0  0  0  0
  6 39  1  0  0  0  0
  9 40  1  0  0  0  0
 10 41  1  0  0  0  0
 10 42  1  0  0  0  0
 12 43  1  0  0  0  0
 13 44  1  0  0  0  0
 14 45  1  0  0  0  0
 15 46  1  0  0  0  0
 16 47  1  0  0  0  0
 17 48  1  0  0  0  0
 21 49  1  0  0  0  0
 23 50  1  0  0  0  0
 24 51  1  0  0  0  0
 27 52  1  0  0  0  0
 28 53  1  0  0  0  0
 55 56  1  0  0  0  0
 54 60  1  0  0  0  0
 55 61  1  0  0  0  0
 60 61  1  0  0  0  0
 56 62  1  0  0  0  0
 61 62  1  0  0  0  0
 57 66  1  0  0  0  0
 63 66  1  0  0  0  0
 58 67  1  0  0  0  0
 64 67  1  0  0  0  0
 59 68  1  0  0  0  0
 65 68  1  0  0  0  0
 57 69  1  0  0  0  0
 63 69  1  0  0  0  0
 66 69  1  0  0  0  0
 58 70  1  0  0  0  0
 64 70  1  0  0  0  0
 67 70  1  0  0  0  0
 59 71  1  0  0  0  0
 65 71  1  0  0  0  0
 68 71  1  0  0  0  0
 59 72  1  0  0  0  0
 65 72  1  0  0  0  0
 68 72  1  0  0  0  0
 54 73  2  0  0  0  0
 55 74  2  0  0  0  0
 56 75  2  0  0  0  0
 57 76  2  0  0  0  0
 58 77  2  0  0  0  0
 59 78  1  0  0  0  0
 71 78  1  0  0  0  0
 59 79  1  0  0  0  0
 72 79  1  0  0  0  0
 60 80  2  0  0  0  0
 61 81  2  0  0  0  0
 62 82  2  0  0  0  0
 63 83  2  0  0  0  0
 64 84  2  0  0  0  0
 65 85  1  0  0  0  0
 71 85  1  0  0  0  0
 65 86  1  0  0  0  0
 72 86  1  0  0  0  0
M  END
