 xtb: 6.7.1pre (5071a88)
          08312621193D

 86 95  0     0  0            999 V2000
   -4.6451    1.0442    9.9804 C   0  0  0  0  0  0  0  0  0  0  0  0
   -4.3899   -0.2734    9.3175 C   0  0  0  0  0  0  0  0  0  0  0  0
   -5.1691   -0.3111    8.0193 C   0  0  0  0  0  0  0  0  0  0  0  0
   -2.9360   -0.4830    8.9796 C   0  0  0  0  0  0  0  0  0  0  0  0
   -2.0563   -0.4459   10.2102 C   0  0  0  0  0  0  0  0  0  0  0  0
   -0.6847   -0.6568    9.7760 N   0  0  0  0  0  0  0  0  0  0  0  0
    0.3306    0.3123    9.9953 C   0  0  0  0  0  0  0  0  0  0  0  0
   -0.0484    1.3772   10.5932 O   0  0  0  0  0  0  0  0  0  0  0  0
    1.7422    0.1324    9.5700 C   0  0  0  0  0  0  0  0  0  0  0  0
    2.4855   -0.8397   10.4619 C   0  0  0  0  0  0  0  0  0  0  0  0
    1.9315   -2.1874   10.5210 C   0  0  0  0  0  0  0  0  0  0  0  0
    1.0116   -2.4597   11.5417 C   0  0  0  0  0  0  0  0  0  0  0  0
    0.4612   -3.7136   11.6404 C   0  0  0  0  0  0  0  0  0  0  0  0
    0.8281   -4.6889   10.7245 C   0  0  0  0  0  0  0  0  0  0  0  0
    1.7369   -4.4385    9.7074 C   0  0  0  0  0  0  0  0  0  0  0  0
    2.2834   -3.1707    9.6201 C   0  0  0  0  0  0  0  0  0  0  0  0
    2.3670    1.4379    9.9004 N   0  0  0  0  0  0  0  0  0  0  0  0
    3.0313    2.2044    8.9125 C   0  0  0  0  0  0  0  0  0  0  0  0
    3.0815    1.7578    7.7508 O   0  0  0  0  0  0  0  0  0  0  0  0
    3.6284    3.4873    9.3043 C   0  0  0  0  0  0  0  0  0  0  0  0
    4.2730    4.2173    8.3155 C   0  0  0  0  0  0  0  0  0  0  0  0
    4.8162    5.3913    8.6869 N   0  0  0  0  0  0  0  0  0  0  0  0
    4.7519    5.8536    9.9389 C   0  0  0  0  0  0  0  0  0  0  0  0
    4.1050    5.1127   10.9132 C   0  0  0  0  0  0  0  0  0  0  0  0
    3.5522    3.9353   10.5729 N   0  0  0  0  0  0  0  0  0  0  0  0
   -2.5125   -1.5400   11.2529 B   0  0  0  0  0  0  0  0  0  0  0  0
   -2.2813   -1.4032   12.6884 O   0  0  0  0  0  0  0  0  0  0  0  0
   -3.2096   -2.7209   10.7493 O   0  0  0  0  0  0  0  0  0  0  0  0
   -5.7496    1.0828   10.1839 H   0  0  0  0  0  0  0  0  0  0  0  0
   -4.1739    1.1428   10.9722 H   0  0  0  0  0  0  0  0  0  0  0  0
   -4.4341    1.8924    9.3110 H   0  0  0  0  0  0  0  0  0  0  0  0
   -4.7620   -1.0923    9.9640 H   0  0  0  0  0  0  0  0  0  0  0  0
   -5.6133   -1.3191    7.8673 H   0  0  0  0  0  0  0  0  0  0  0  0
   -4.4970   -0.0260    7.1812 H   0  0  0  0  0  0  0  0  0  0  0  0
   -5.9701    0.4508    8.0431 H   0  0  0  0  0  0  0  0  0  0  0  0
   -2.6457    0.2822    8.2553 H   0  0  0  0  0  0  0  0  0  0  0  0
   -2.8461   -1.4885    8.5192 H   0  0  0  0  0  0  0  0  0  0  0  0
   -2.1587    0.5399   10.7088 H   0  0  0  0  0  0  0  0  0  0  0  0
   -0.4681   -1.5500    9.2839 H   0  0  0  0  0  0  0  0  0  0  0  0
    1.8698   -0.1233    8.5120 H   0  0  0  0  0  0  0  0  0  0  0  0
    2.5099   -0.3432   11.4782 H   0  0  0  0  0  0  0  0  0  0  0  0
    3.5418   -0.8152   10.1129 H   0  0  0  0  0  0  0  0  0  0  0  0
    0.7248   -1.6980   12.2574 H   0  0  0  0  0  0  0  0  0  0  0  0
   -0.2530   -3.9296   12.4308 H   0  0  0  0  0  0  0  0  0  0  0  0
    0.4079   -5.7001   10.7746 H   0  0  0  0  0  0  0  0  0  0  0  0
    2.0106   -5.2145    9.0014 H   0  0  0  0  0  0  0  0  0  0  0  0
    2.9821   -2.9497    8.8515 H   0  0  0  0  0  0  0  0  0  0  0  0
    2.2704    1.7234   10.8998 H   0  0  0  0  0  0  0  0  0  0  0  0
    4.3307    3.8463    7.2867 H   0  0  0  0  0  0  0  0  0  0  0  0
    5.1909    6.8018   10.2375 H   0  0  0  0  0  0  0  0  0  0  0  0
    4.0295    5.4492   11.9387 H   0  0  0  0  0  0  0  0  0  0  0  0
   -2.2468   -0.4287   12.9060 H   0  0  0  0  0  0  0  0  0  0  0  0
   -2.5350   -3.4644   10.8569 H   0  0  0  0  0  0  0  0  0  0  0  0
   -2.1419   -3.0088    2.1197 Ti  0  0  0  0  0  0  0  0  0  0  0  0
    0.2890   -1.6948    1.4324 Ti  0  0  0  0  0  0  0  0  0  0  0  0
    1.9031   -3.0677   -0.7293 Ti  0  0  0  0  0  0  0  0  0  0  0  0
   -2.5215   -0.2519    1.3037 Ti  0  0  0  0  0  0  0  0  0  0  0  0
    2.1420    0.4995    2.2044 Ti  0  0  0  0  0  0  0  0  0  0  0  0
   -0.6814    0.1896    3.6812 Ti  0  0  0  0  0  0  0  0  0  0  0  0
   -2.0368   -3.0777   -1.2005 Ti  0  0  0  0  0  0  0  0  0  0  0  0
   -0.6053   -0.7709   -2.0351 Ti  0  0  0  0  0  0  0  0  0  0  0  0
    1.9455   -1.5873   -3.4124 Ti  0  0  0  0  0  0  0  0  0  0  0  0
   -1.8782    1.7466   -1.2400 Ti  0  0  0  0  0  0  0  0  0  0  0  0
    2.4125    0.4542   -0.7742 Ti  0  0  0  0  0  0  0  0  0  0  0  0
    0.8177    1.8385   -2.9400 Ti  0  0  0  0  0  0  0  0  0  0  0  0
   -3.6784    1.2814    0.6007 C   0  0  0  0  0  0  0  0  0  0  0  0
    4.1282    0.4828    0.3873 C   0  0  0  0  0  0  0  0  0  0  0  0
    0.4555    2.2672    0.3497 C   0  0  0  0  0  0  0  0  0  0  0  0
   -3.6667    2.1188   -0.3139 C   0  0  0  0  0  0  0  0  0  0  0  0
    4.1160    0.6322    1.6214 C   0  0  0  0  0  0  0  0  0  0  0  0
   -0.6352    2.7410   -0.1189 C   0  0  0  0  0  0  0  0  0  0  0  0
    1.6301    1.7810    0.7342 C   0  0  0  0  0  0  0  0  0  0  0  0
   -3.0935   -1.9569    1.0379 O   0  0  0  0  0  0  0  0  0  0  0  0
   -0.4872   -2.6058    2.7012 O   0  0  0  0  0  0  0  0  0  0  0  0
    0.3141   -2.8889    0.1450 O   0  0  0  0  0  0  0  0  0  0  0  0
   -0.8008   -0.4359    0.9712 O   0  0  0  0  0  0  0  0  0  0  0  0
    1.9029   -1.1583    1.4694 O   0  0  0  0  0  0  0  0  0  0  0  0
   -2.3227   -0.1139    3.0248 O   0  0  0  0  0  0  0  0  0  0  0  0
    1.0138    0.4416    3.5688 O   0  0  0  0  0  0  0  0  0  0  0  0
   -1.7720   -4.5879   -1.6528 O   0  0  0  0  0  0  0  0  0  0  0  0
    0.1906   -1.1892   -3.5340 O   0  0  0  0  0  0  0  0  0  0  0  0
    2.8314   -2.1702   -1.9180 O   0  0  0  0  0  0  0  0  0  0  0  0
   -2.0546   -0.2244   -1.3375 O   0  0  0  0  0  0  0  0  0  0  0  0
    0.7685   -0.3906   -1.0637 O   0  0  0  0  0  0  0  0  0  0  0  0
   -0.9000    1.6493   -2.8186 O   0  0  0  0  0  0  0  0  0  0  0  0
    2.4153    1.3575   -2.2641 O   0  0  0  0  0  0  0  0  0  0  0  0
  1  2  1  0  0  0  0
  2  3  1  0  0  0  0
  2  4  1  0  0  0  0
  4  5  1  0  0  0  0
  5  6  1  0  0  0  0
  6  7  4  0  0  0  0
  7  8  2  0  0  0  0
  7  9  1  0  0  0  0
  9 10  1  0  0  0  0
 10 11  1  0  0  0  0
 11 12  4  0  0  0  0
 12 13  4  0  0  0  0
 13 14  4  0  0  0  0
 14 15  4  0  0  0  0
 11 16  4  0  0  0  0
 15 16  4  0  0  0  0
  9 17  1  0  0  0  0
 17 18  4  0  0  0  0
 18 19  2  0  0  0  0
 18 20  1  0  0  0  0
 20 21  4  0  0  0  0
 21 22  4  0  0  0  0
 22 23  4  0  0  0  0
 23 24  4  0  0  0  0
 20 25  4  0  0  0  0
 24 25  4  0  0  0  0
  5 26  1  0  0  0  0
 26 27  1  0  0  0  0
 26 28  1  0  0  0  0
  1 29  1  0  0  0  0
  1 30  1  0  0  0  0
  1 31  1  0  0  0  0
  2 32  1  0  0  0  0
  3 33  1  0  0  0  0
  3 34  1  0  0  0  0
  3 35  1  0  0  0  0
  4 36  1  0  0  0  0
  4 37  1  0  0  0  0
  5 38  1  0  0  0  0
  6 39  1  0  0  0  0
  9 40  1  0  0  0  0
 10 41  1  0  0  0  0
 10 42  1  0  0  0  0
 12 43  1  0  0  0  0
 13 44  1  0  0  0  0
 14 45  1  0  0  0  0
 15 46  1  0  0  0  0
 16 47  1  0  0  0  0
 17 48  1  0  0  0  0
 21 49  1  0  0  0  0
 23 50  1  0  0  0  0
 24 51  1  0  0  0  0
 27 52  1  0  0  0  0
 28 53  1  0  0  0  0
 54 60  1  0  0  0  0
 60 61  1  0  0  0  0
 56 62  1  0  0  0  0
 57 66  1  0  0  0  0
 64 67  1  0  0  0  0
 63 69  1  0  0  0  0
 66 69  3  0  0  0  0
 58 70  1  0  0  0  0
 67 70  3  0  0  0  0
 63 71  1  0  0  0  0
 68 71  2  0  0  0  0
 58 72  1  0  0  0  0
 64 72  1  0  0  0  0
 68 72  2  0  0  0  0
 54 73  1  0  0  0  0
 57 73  1  0  0  0  0
 54 74  1  0  0  0  0
 55 74  1  0  0  0  0
 55 75  1  0  0  0  0
 56 75  1  0  0  0  0
 55 76  1  0  0  0  0
 57 76  1  0  0  0  0
 55 77  1  0  0  0  0
 58 77  1  0  0  0  0
 57 78  1  0  0  0  0
 59 78  1  0  0  0  0
 58 79  1  0  0  0  0
 59 79  1  0  0  0  0
 60 80  2  0  0  0  0
 61 81  1  0  0  0  0
 62 81  1  0  0  0  0
 56 82  1  0  0  0  0
 62 82  1  0  0  0  0
 61 83  1  0  0  0  0
 63 83  1  0  0  0  0
 61 84  1  0  0  0  0
 64 84  1  0  0  0  0
 63 85  1  0  0  0  0
 65 85  1  0  0  0  0
 64 86  1  0  0  0  0
 65 86  1  0  0  0  0
M  END
