 xtb: 6.7.1pre (5071a88)
          08312620413D

 89104  0     0  0            999 V2000
   -5.7352   -2.9291    4.3958 C   0  0  0  0  0  0  0  0  0  0  0  0
   -5.5660   -1.8039    5.4401 C   0  0  0  0  0  0  0  0  0  0  0  0
   -5.7340   -2.4265    6.8384 C   0  0  0  0  0  0  0  0  0  0  0  0
   -6.6731   -0.7617    5.1972 C   0  0  0  0  0  0  0  0  0  0  0  0
   -4.1850   -1.1678    5.2953 C   0  0  0  0  0  0  0  0  0  0  0  0
   -3.2903   -1.5423    4.4018 N   0  0  0  0  0  0  0  0  0  0  0  0
   -2.1460   -0.7892    4.5231 C   0  0  0  0  0  0  0  0  0  0  0  0
   -1.1438   -1.0982    3.6562 N   0  0  0  0  0  0  0  0  0  0  0  0
    0.2223   -1.1678    4.0179 C   0  0  0  0  0  0  0  0  0  0  0  0
    0.7191   -2.2834    4.7067 C   0  0  0  0  0  0  0  0  0  0  0  0
    2.0564   -2.3324    5.1108 C   0  0  0  0  0  0  0  0  0  0  0  0
    2.9066   -1.2632    4.8282 C   0  0  0  0  0  0  0  0  0  0  0  0
    4.2463   -1.3041    5.3157 N   0  0  0  0  0  0  0  0  0  0  0  0
    4.6045   -0.4238    6.7178 S   0  0  0  0  0  0  0  0  0  0  0  0
    3.3830   -0.3220    7.4898 O   0  0  0  0  0  0  0  0  0  0  0  0
    5.7813   -1.0512    7.2836 O   0  0  0  0  0  0  0  0  0  0  0  0
    5.0960    1.1499    6.1519 C   0  0  0  0  0  0  0  0  0  0  0  0
    5.9780    1.2565    5.0847 C   0  0  0  0  0  0  0  0  0  0  0  0
    6.4876    0.1684    4.4909 F   0  0  0  0  0  0  0  0  0  0  0  0
    6.3641    2.5087    4.6070 C   0  0  0  0  0  0  0  0  0  0  0  0
    5.8684    3.6650    5.2087 C   0  0  0  0  0  0  0  0  0  0  0  0
    5.0009    3.5578    6.2955 C   0  0  0  0  0  0  0  0  0  0  0  0
    4.6258    2.2999    6.7674 C   0  0  0  0  0  0  0  0  0  0  0  0
    3.8394    2.2455    7.8489 F   0  0  0  0  0  0  0  0  0  0  0  0
    2.4051   -0.1481    4.1525 C   0  0  0  0  0  0  0  0  0  0  0  0
    3.2019    0.8937    3.8748 F   0  0  0  0  0  0  0  0  0  0  0  0
    1.0787   -0.1016    3.7352 C   0  0  0  0  0  0  0  0  0  0  0  0
   -2.1679    0.1877    5.5017 C   0  0  0  0  0  0  0  0  0  0  0  0
   -1.1928    1.1980    5.8921 C   0  0  0  0  0  0  0  0  0  0  0  0
   -1.1751    2.4385    5.2519 C   0  0  0  0  0  0  0  0  0  0  0  0
   -0.2194    3.3628    5.6367 C   0  0  0  0  0  0  0  0  0  0  0  0
    0.7012    3.1349    6.5962 N   0  0  0  0  0  0  0  0  0  0  0  0
    0.6624    1.9271    7.2025 C   0  0  0  0  0  0  0  0  0  0  0  0
   -0.2555    0.9383    6.8923 C   0  0  0  0  0  0  0  0  0  0  0  0
   -3.6766    0.1268    6.3186 S   0  0  0  0  0  0  0  0  0  0  0  0
   -6.7200   -3.4033    4.4787 H   0  0  0  0  0  0  0  0  0  0  0  0
   -5.6391   -2.5440    3.3736 H   0  0  0  0  0  0  0  0  0  0  0  0
   -4.9793   -3.7128    4.5262 H   0  0  0  0  0  0  0  0  0  0  0  0
   -6.6937   -2.9491    6.9249 H   0  0  0  0  0  0  0  0  0  0  0  0
   -4.9386   -3.1513    7.0484 H   0  0  0  0  0  0  0  0  0  0  0  0
   -5.7066   -1.6692    7.6299 H   0  0  0  0  0  0  0  0  0  0  0  0
   -6.6646    0.0293    5.9554 H   0  0  0  0  0  0  0  0  0  0  0  0
   -7.6656   -1.2262    5.2265 H   0  0  0  0  0  0  0  0  0  0  0  0
   -6.5579   -0.2810    4.2185 H   0  0  0  0  0  0  0  0  0  0  0  0
   -1.3918   -1.9421    3.1407 H   0  0  0  0  0  0  0  0  0  0  0  0
    0.0569   -3.1107    4.9538 H   0  0  0  0  0  0  0  0  0  0  0  0
    2.4135   -3.1942    5.6677 H   0  0  0  0  0  0  0  0  0  0  0  0
    4.7342   -2.1987    5.3158 H   0  0  0  0  0  0  0  0  0  0  0  0
    7.0488    2.5728    3.7661 H   0  0  0  0  0  0  0  0  0  0  0  0
    6.1615    4.6444    4.8385 H   0  0  0  0  0  0  0  0  0  0  0  0
    4.6125    4.4467    6.7856 H   0  0  0  0  0  0  0  0  0  0  0  0
    0.7162    0.7769    3.2114 H   0  0  0  0  0  0  0  0  0  0  0  0
   -1.8840    2.6800    4.4674 H   0  0  0  0  0  0  0  0  0  0  0  0
   -0.1658    4.3406    5.1672 H   0  0  0  0  0  0  0  0  0  0  0  0
    1.4164    1.7633    7.9681 H   0  0  0  0  0  0  0  0  0  0  0  0
   -0.2212   -0.0142    7.4102 H   0  0  0  0  0  0  0  0  0  0  0  0
   -3.0000   -2.6000    1.2500 Ti  0  0  0  0  0  0  0  0  0  0  0  0
    0.0000   -2.6000    1.2500 Ti  0  0  0  0  0  0  0  0  0  0  0  0
    3.0000   -2.6000    1.2500 Ti  0  0  0  0  0  0  0  0  0  0  0  0
   -1.5000    0.0000    1.2500 Ti  0  0  0  0  0  0  0  0  0  0  0  0
    1.5000    0.0000    1.2500 Ti  0  0  0  0  0  0  0  0  0  0  0  0
    0.0000    2.6000    1.2500 Ti  0  0  0  0  0  0  0  0  0  0  0  0
   -3.0000   -2.6000   -1.2500 Ti  0  0  0  0  0  0  0  0  0  0  0  0
    0.0000   -2.6000   -1.2500 Ti  0  0  0  0  0  0  0  0  0  0  0  0
    3.0000   -2.6000   -1.2500 Ti  0  0  0  0  0  0  0  0  0  0  0  0
   -1.5000    0.0000   -1.2500 Ti  0  0  0  0  0  0  0  0  0  0  0  0
    1.5000    0.0000   -1.2500 Ti  0  0  0  0  0  0  0  0  0  0  0  0
    0.0000    2.6000   -1.2500 Ti  0  0  0  0  0  0  0  0  0  0  0  0
   -1.5000   -1.3000    0.0000 C   0  0  0  0  0  0  0  0  0  0  0  0
    1.5000   -1.3000    0.0000 C   0  0  0  0  0  0  0  0  0  0  0  0
    0.0000    1.3000    0.0000 C   0  0  0  0  0  0  0  0  0  0  0  0
   -3.0000    0.0000    0.0000 C   0  0  0  0  0  0  0  0  0  0  0  0
    3.0000    0.0000    0.0000 C   0  0  0  0  0  0  0  0  0  0  0  0
   -1.5000    2.6000    0.0000 C   0  0  0  0  0  0  0  0  0  0  0  0
    1.5000    2.6000    0.0000 C   0  0  0  0  0  0  0  0  0  0  0  0
   -3.0000   -2.6000    2.4500 O   0  0  0  0  0  0  0  0  0  0  0  0
    0.0000   -2.6000    2.4500 O   0  0  0  0  0  0  0  0  0  0  0  0
    3.0000   -2.6000    2.4500 O   0  0  0  0  0  0  0  0  0  0  0  0
   -1.5000    0.0000    2.4500 O   0  0  0  0  0  0  0  0  0  0  0  0
    1.5000    0.0000    2.4500 O   0  0  0  0  0  0  0  0  0  0  0  0
   -1.5000    2.6000    2.4500 O   0  0  0  0  0  0  0  0  0  0  0  0
    1.5000    2.6000    2.4500 O   0  0  0  0  0  0  0  0  0  0  0  0
   -3.0000   -2.6000   -2.4500 O   0  0  0  0  0  0  0  0  0  0  0  0
    0.0000   -2.6000   -2.4500 O   0  0  0  0  0  0  0  0  0  0  0  0
    3.0000   -2.6000   -2.4500 O   0  0  0  0  0  0  0  0  0  0  0  0
   -1.5000    0.0000   -2.4500 O   0  0  0  0  0  0  0  0  0  0  0  0
    1.5000    0.0000   -2.4500 O   0  0  0  0  0  0  0  0  0  0  0  0
   -1.5000    2.6000   -2.4500 O   0  0  0  0  0  0  0  0  0  0  0  0
    1.5000    2.6000   -2.4500 O   0  0  0  0  0  0  0  0  0  0  0  0
  1  2  1  0  0  0  0
  2  3  1  0  0  0  0
  2  4  1  0  0  0  0
  2  5  1  0  0  0  0
  5  6  2  0  0  0  0
  6  7  1  0  0  0  0
  7  8  1  0  0  0  0
  8  9  1  0  0  0  0
  9 10  4  0  0  0  0
 10 11  4  0  0  0  0
 11 12  4  0  0  0  0
 12 13  1  0  0  0  0
 13 14  1  0  0  0  0
 14 15  2  0  0  0  0
 14 16  2  0  0  0  0
 14 17  1  0  0  0  0
 17 18  4  0  0  0  0
 18 19  1  0  0  0  0
 18 20  4  0  0  0  0
 20 21  4  0  0  0  0
 21 22  4  0  0  0  0
 17 23  4  0  0  0  0
 22 23  4  0  0  0  0
 23 24  1  0  0  0  0
 12 25  4  0  0  0  0
 25 26  1  0  0  0  0
  9 27  1  0  0  0  0
 25 27  1  0  0  0  0
  7 28  4  0  0  0  0
 28 29  1  0  0  0  0
 29 30  4  0  0  0  0
 30 31  4  0  0  0  0
 31 32  4  0  0  0  0
 32 33  4  0  0  0  0
 29 34  4  0  0  0  0
 33 34  4  0  0  0  0
  5 35  1  0  0  0  0
 28 35  1  0  0  0  0
  1 36  1  0  0  0  0
  1 37  1  0  0  0  0
  1 38  1  0  0  0  0
  3 39  1  0  0  0  0
  3 40  1  0  0  0  0
  3 41  1  0  0  0  0
  4 42  1  0  0  0  0
  4 43  1  0  0  0  0
  4 44  1  0  0  0  0
  8 45  1  0  0  0  0
 10 46  1  0  0  0  0
 11 47  1  0  0  0  0
 13 48  1  0  0  0  0
 20 49  1  0  0  0  0
 21 50  1  0  0  0  0
 22 51  1  0  0  0  0
 27 52  1  0  0  0  0
 30 53  1  0  0  0  0
 31 54  1  0  0  0  0
 33 55  1  0  0  0  0
 34 56  1  0  0  0  0
 57 58  1  0  0  0  0
 58 59  1  0  0  0  0
 57 63  1  0  0  0  0
 58 64  1  0  0  0  0
 63 64  1  0  0  0  0
 59 65  1  0  0  0  0
 64 65  1  0  0  0  0
 60 69  1  0  0  0  0
 66 69  1  0  0  0  0
 61 70  1  0  0  0  0
 67 70  1  0  0  0  0
 62 71  1  0  0  0  0
 68 71  1  0  0  0  0
 60 72  1  0  0  0  0
 66 72  1  0  0  0  0
 69 72  1  0  0  0  0
 61 73  1  0  0  0  0
 67 73  1  0  0  0  0
 70 73  1  0  0  0  0
 62 74  1  0  0  0  0
 68 74  1  0  0  0  0
 71 74  1  0  0  0  0
 62 75  1  0  0  0  0
 68 75  1  0  0  0  0
 71 75  1  0  0  0  0
 57 76  2  0  0  0  0
 58 77  2  0  0  0  0
 59 78  2  0  0  0  0
  8 79  1  0  0  0  0
 60 79  2  0  0  0  0
 27 80  1  0  0  0  0
 61 80  1  0  0  0  0
 62 81  1  0  0  0  0
 74 81  1  0  0  0  0
 62 82  1  0  0  0  0
 75 82  1  0  0  0  0
 63 83  2  0  0  0  0
 64 84  2  0  0  0  0
 65 85  2  0  0  0  0
 66 86  2  0  0  0  0
 67 87  2  0  0  0  0
 68 88  1  0  0  0  0
 74 88  1  0  0  0  0
 68 89  1  0  0  0  0
 75 89  1  0  0  0  0
M  END
