 xtb: 6.7.1pre (5071a88)
          08312621583D

 82 93  0     0  0            999 V2000
   -0.1756   -4.1626    9.8157 C   0  0  0  0  0  0  0  0  0  0  0  0
   -0.3598   -3.1075    8.7088 C   0  0  0  0  0  0  0  0  0  0  0  0
    0.9186   -3.0265    7.8576 C   0  0  0  0  0  0  0  0  0  0  0  0
   -1.5296   -3.5553    7.8103 C   0  0  0  0  0  0  0  0  0  0  0  0
   -0.6165   -1.7364    9.3308 C   0  0  0  0  0  0  0  0  0  0  0  0
   -1.5839   -0.9701    8.8166 N   0  0  0  0  0  0  0  0  0  0  0  0
   -1.7410    0.2447    9.3600 C   0  0  0  0  0  0  0  0  0  0  0  0
   -1.0188    0.7393   10.3530 N   0  0  0  0  0  0  0  0  0  0  0  0
   -0.0821   -0.1115   10.7691 C   0  0  0  0  0  0  0  0  0  0  0  0
    0.1821   -1.3457   10.3204 N   0  0  0  0  0  0  0  0  0  0  0  0
    0.9981    0.4984   12.0697 S   0  0  0  0  0  0  0  0  0  0  0  0
    1.2854    1.9045   11.8551 O   0  0  0  0  0  0  0  0  0  0  0  0
    0.4452    0.0406   13.3321 O   0  0  0  0  0  0  0  0  0  0  0  0
    2.4467   -0.3639   11.8905 N   0  0  0  0  0  0  0  0  0  0  0  0
    3.4961    0.1547   11.0621 C   0  0  0  0  0  0  0  0  0  0  0  0
    3.3013    0.6806    9.7828 C   0  0  0  0  0  0  0  0  0  0  0  0
    2.0761    0.7502    9.2452 F   0  0  0  0  0  0  0  0  0  0  0  0
    4.3774    1.1289    9.0148 C   0  0  0  0  0  0  0  0  0  0  0  0
    5.6772    1.0388    9.5130 C   0  0  0  0  0  0  0  0  0  0  0  0
    5.8941    0.4899   10.7754 C   0  0  0  0  0  0  0  0  0  0  0  0
    4.8088    0.0475   11.5304 C   0  0  0  0  0  0  0  0  0  0  0  0
    5.0383   -0.4908   12.7388 F   0  0  0  0  0  0  0  0  0  0  0  0
   -2.7899    1.0952    8.8110 C   0  0  0  0  0  0  0  0  0  0  0  0
   -3.6847    0.6721    7.8375 C   0  0  0  0  0  0  0  0  0  0  0  0
   -4.5342    1.7068    7.5493 N   0  0  0  0  0  0  0  0  0  0  0  0
   -4.2119    2.7950    8.3092 C   0  0  0  0  0  0  0  0  0  0  0  0
   -4.8648    3.9721    8.2522 N   0  0  0  0  0  0  0  0  0  0  0  0
   -4.3509    4.8932    9.1037 C   0  0  0  0  0  0  0  0  0  0  0  0
   -3.2751    4.6905    9.9538 C   0  0  0  0  0  0  0  0  0  0  0  0
   -2.8524    5.6792   10.7523 F   0  0  0  0  0  0  0  0  0  0  0  0
   -2.6340    3.4571    9.9753 C   0  0  0  0  0  0  0  0  0  0  0  0
   -3.1244    2.4567    9.1135 C   0  0  0  0  0  0  0  0  0  0  0  0
    0.6904   -3.9413   10.4505 H   0  0  0  0  0  0  0  0  0  0  0  0
   -0.0186   -5.1599    9.3889 H   0  0  0  0  0  0  0  0  0  0  0  0
   -1.0566   -4.2117   10.4666 H   0  0  0  0  0  0  0  0  0  0  0  0
    0.8199   -2.2782    7.0623 H   0  0  0  0  0  0  0  0  0  0  0  0
    1.7892   -2.7464    8.4626 H   0  0  0  0  0  0  0  0  0  0  0  0
    1.1408   -3.9898    7.3847 H   0  0  0  0  0  0  0  0  0  0  0  0
   -1.6806   -2.8678    6.9697 H   0  0  0  0  0  0  0  0  0  0  0  0
   -2.4693   -3.6027    8.3733 H   0  0  0  0  0  0  0  0  0  0  0  0
   -1.3451   -4.5499    7.3880 H   0  0  0  0  0  0  0  0  0  0  0  0
    2.7219   -0.8158   12.7635 H   0  0  0  0  0  0  0  0  0  0  0  0
    4.1913    1.5421    8.0273 H   0  0  0  0  0  0  0  0  0  0  0  0
    6.5166    1.3886    8.9164 H   0  0  0  0  0  0  0  0  0  0  0  0
    6.8991    0.4016   11.1776 H   0  0  0  0  0  0  0  0  0  0  0  0
   -3.7850   -0.2792    7.3302 H   0  0  0  0  0  0  0  0  0  0  0  0
   -5.2912    1.6967    6.8812 H   0  0  0  0  0  0  0  0  0  0  0  0
   -4.8490    5.8584    9.0903 H   0  0  0  0  0  0  0  0  0  0  0  0
   -1.7897    3.2898   10.6351 H   0  0  0  0  0  0  0  0  0  0  0  0
   -2.1419   -3.0088    2.1197 Ti  0  0  0  0  0  0  0  0  0  0  0  0
    0.2890   -1.6948    1.4324 Ti  0  0  0  0  0  0  0  0  0  0  0  0
    1.9031   -3.0677   -0.7293 Ti  0  0  0  0  0  0  0  0  0  0  0  0
   -2.5215   -0.2519    1.3037 Ti  0  0  0  0  0  0  0  0  0  0  0  0
    2.1420    0.4995    2.2044 Ti  0  0  0  0  0  0  0  0  0  0  0  0
   -0.6814    0.1896    3.6812 Ti  0  0  0  0  0  0  0  0  0  0  0  0
   -2.0368   -3.0777   -1.2005 Ti  0  0  0  0  0  0  0  0  0  0  0  0
   -0.6053   -0.7709   -2.0351 Ti  0  0  0  0  0  0  0  0  0  0  0  0
    1.9455   -1.5873   -3.4124 Ti  0  0  0  0  0  0  0  0  0  0  0  0
   -1.8782    1.7466   -1.2400 Ti  0  0  0  0  0  0  0  0  0  0  0  0
    2.4125    0.4542   -0.7742 Ti  0  0  0  0  0  0  0  0  0  0  0  0
    0.8177    1.8385   -2.9400 Ti  0  0  0  0  0  0  0  0  0  0  0  0
   -3.6784    1.2814    0.6007 C   0  0  0  0  0  0  0  0  0  0  0  0
    4.1282    0.4828    0.3873 C   0  0  0  0  0  0  0  0  0  0  0  0
    0.4555    2.2672    0.3497 C   0  0  0  0  0  0  0  0  0  0  0  0
   -3.6667    2.1188   -0.3139 C   0  0  0  0  0  0  0  0  0  0  0  0
    4.1160    0.6322    1.6214 C   0  0  0  0  0  0  0  0  0  0  0  0
   -0.6352    2.7410   -0.1189 C   0  0  0  0  0  0  0  0  0  0  0  0
    1.6301    1.7810    0.7342 C   0  0  0  0  0  0  0  0  0  0  0  0
   -3.0935   -1.9569    1.0379 O   0  0  0  0  0  0  0  0  0  0  0  0
   -0.4872   -2.6058    2.7012 O   0  0  0  0  0  0  0  0  0  0  0  0
    0.3141   -2.8889    0.1450 O   0  0  0  0  0  0  0  0  0  0  0  0
   -0.8008   -0.4359    0.9712 O   0  0  0  0  0  0  0  0  0  0  0  0
    1.9029   -1.1583    1.4694 O   0  0  0  0  0  0  0  0  0  0  0  0
   -2.3227   -0.1139    3.0248 O   0  0  0  0  0  0  0  0  0  0  0  0
    1.0138    0.4416    3.5688 O   0  0  0  0  0  0  0  0  0  0  0  0
   -1.7720   -4.5879   -1.6528 O   0  0  0  0  0  0  0  0  0  0  0  0
    0.1906   -1.1892   -3.5340 O   0  0  0  0  0  0  0  0  0  0  0  0
    2.8314   -2.1702   -1.9180 O   0  0  0  0  0  0  0  0  0  0  0  0
   -2.0546   -0.2244   -1.3375 O   0  0  0  0  0  0  0  0  0  0  0  0
    0.7685   -0.3906   -1.0637 O   0  0  0  0  0  0  0  0  0  0  0  0
   -0.9000    1.6493   -2.8186 O   0  0  0  0  0  0  0  0  0  0  0  0
    2.4153    1.3575   -2.2641 O   0  0  0  0  0  0  0  0  0  0  0  0
  1  2  1  0  0  0  0
  2  3  1  0  0  0  0
  2  4  1  0  0  0  0
  2  5  1  0  0  0  0
  5  6  4  0  0  0  0
  6  7  4  0  0  0  0
  7  8  4  0  0  0  0
  8  9  4  0  0  0  0
  5 10  4  0  0  0  0
  9 10  4  0  0  0  0
  9 11  1  0  0  0  0
 11 12  2  0  0  0  0
 11 13  2  0  0  0  0
 11 14  1  0  0  0  0
 14 15  1  0  0  0  0
 15 16  4  0  0  0  0
 16 17  1  0  0  0  0
 16 18  4  0  0  0  0
 18 19  4  0  0  0  0
 19 20  4  0  0  0  0
 15 21  4  0  0  0  0
 20 21  4  0  0  0  0
 21 22  1  0  0  0  0
  7 23  1  0  0  0  0
 23 24  4  0  0  0  0
 24 25  4  0  0  0  0
 25 26  1  0  0  0  0
 26 27  4  0  0  0  0
 27 28  4  0  0  0  0
 28 29  4  0  0  0  0
 29 30  1  0  0  0  0
 29 31  4  0  0  0  0
 23 32  1  0  0  0  0
 26 32  4  0  0  0  0
 31 32  4  0  0  0  0
  1 33  1  0  0  0  0
  1 34  1  0  0  0  0
  1 35  1  0  0  0  0
  3 36  1  0  0  0  0
  3 37  1  0  0  0  0
  3 38  1  0  0  0  0
  4 39  1  0  0  0  0
  4 40  1  0  0  0  0
  4 41  1  0  0  0  0
 14 42  1  0  0  0  0
 18 43  1  0  0  0  0
 19 44  1  0  0  0  0
 20 45  1  0  0  0  0
 24 46  1  0  0  0  0
 25 47  1  0  0  0  0
 28 48  1  0  0  0  0
 31 49  1  0  0  0  0
 50 56  1  0  0  0  0
 56 57  1  0  0  0  0
 52 58  1  0  0  0  0
 53 62  1  0  0  0  0
 60 63  1  0  0  0  0
 59 65  1  0  0  0  0
 62 65  3  0  0  0  0
 54 66  1  0  0  0  0
 63 66  3  0  0  0  0
 59 67  1  0  0  0  0
 64 67  2  0  0  0  0
 54 68  1  0  0  0  0
 60 68  1  0  0  0  0
 64 68  2  0  0  0  0
 50 69  1  0  0  0  0
 53 69  1  0  0  0  0
 50 70  1  0  0  0  0
 51 70  1  0  0  0  0
 51 71  1  0  0  0  0
 52 71  1  0  0  0  0
 51 72  1  0  0  0  0
 53 72  1  0  0  0  0
 51 73  1  0  0  0  0
 54 73  1  0  0  0  0
 53 74  1  0  0  0  0
 55 74  1  0  0  0  0
 54 75  1  0  0  0  0
 55 75  1  0  0  0  0
 56 76  2  0  0  0  0
 57 77  1  0  0  0  0
 58 77  1  0  0  0  0
 52 78  1  0  0  0  0
 58 78  1  0  0  0  0
 57 79  1  0  0  0  0
 59 79  1  0  0  0  0
 57 80  1  0  0  0  0
 60 80  1  0  0  0  0
 59 81  1  0  0  0  0
 61 81  1  0  0  0  0
 60 82  1  0  0  0  0
 61 82  1  0  0  0  0
M  END
