 xtb: 6.7.1pre (5071a88)
          08312621193D

 89 99  0     0  0            999 V2000
   -5.7352   -2.9291    8.4364 C   0  0  0  0  0  0  0  0  0  0  0  0
   -5.5660   -1.8039    9.4807 C   0  0  0  0  0  0  0  0  0  0  0  0
   -5.7340   -2.4265   10.8790 C   0  0  0  0  0  0  0  0  0  0  0  0
   -6.6731   -0.7617    9.2377 C   0  0  0  0  0  0  0  0  0  0  0  0
   -4.1850   -1.1678    9.3359 C   0  0  0  0  0  0  0  0  0  0  0  0
   -3.2903   -1.5423    8.4424 N   0  0  0  0  0  0  0  0  0  0  0  0
   -2.1460   -0.7892    8.5637 C   0  0  0  0  0  0  0  0  0  0  0  0
   -1.1438   -1.0982    7.6967 N   0  0  0  0  0  0  0  0  0  0  0  0
    0.2223   -1.1678    8.0585 C   0  0  0  0  0  0  0  0  0  0  0  0
    0.7191   -2.2834    8.7473 C   0  0  0  0  0  0  0  0  0  0  0  0
    2.0564   -2.3324    9.1513 C   0  0  0  0  0  0  0  0  0  0  0  0
    2.9066   -1.2632    8.8688 C   0  0  0  0  0  0  0  0  0  0  0  0
    4.2463   -1.3041    9.3562 N   0  0  0  0  0  0  0  0  0  0  0  0
    4.6045   -0.4238   10.7583 S   0  0  0  0  0  0  0  0  0  0  0  0
    3.3830   -0.3220   11.5304 O   0  0  0  0  0  0  0  0  0  0  0  0
    5.7813   -1.0512   11.3242 O   0  0  0  0  0  0  0  0  0  0  0  0
    5.0960    1.1499   10.1924 C   0  0  0  0  0  0  0  0  0  0  0  0
    5.9780    1.2565    9.1253 C   0  0  0  0  0  0  0  0  0  0  0  0
    6.4876    0.1684    8.5315 F   0  0  0  0  0  0  0  0  0  0  0  0
    6.3641    2.5087    8.6476 C   0  0  0  0  0  0  0  0  0  0  0  0
    5.8684    3.6650    9.2493 C   0  0  0  0  0  0  0  0  0  0  0  0
    5.0009    3.5578   10.3361 C   0  0  0  0  0  0  0  0  0  0  0  0
    4.6258    2.2999   10.8079 C   0  0  0  0  0  0  0  0  0  0  0  0
    3.8394    2.2455   11.8895 F   0  0  0  0  0  0  0  0  0  0  0  0
    2.4051   -0.1481    8.1930 C   0  0  0  0  0  0  0  0  0  0  0  0
    3.2019    0.8937    7.9154 F   0  0  0  0  0  0  0  0  0  0  0  0
    1.0787   -0.1016    7.7758 C   0  0  0  0  0  0  0  0  0  0  0  0
   -2.1679    0.1877    9.5423 C   0  0  0  0  0  0  0  0  0  0  0  0
   -1.1928    1.1980    9.9327 C   0  0  0  0  0  0  0  0  0  0  0  0
   -1.1751    2.4385    9.2925 C   0  0  0  0  0  0  0  0  0  0  0  0
   -0.2194    3.3628    9.6773 C   0  0  0  0  0  0  0  0  0  0  0  0
    0.7012    3.1349   10.6368 N   0  0  0  0  0  0  0  0  0  0  0  0
    0.6624    1.9271   11.2431 C   0  0  0  0  0  0  0  0  0  0  0  0
   -0.2555    0.9383   10.9328 C   0  0  0  0  0  0  0  0  0  0  0  0
   -3.6766    0.1268   10.3591 S   0  0  0  0  0  0  0  0  0  0  0  0
   -6.7200   -3.4033    8.5192 H   0  0  0  0  0  0  0  0  0  0  0  0
   -5.6391   -2.5440    7.4142 H   0  0  0  0  0  0  0  0  0  0  0  0
   -4.9793   -3.7128    8.5667 H   0  0  0  0  0  0  0  0  0  0  0  0
   -6.6937   -2.9491   10.9654 H   0  0  0  0  0  0  0  0  0  0  0  0
   -4.9386   -3.1513   11.0890 H   0  0  0  0  0  0  0  0  0  0  0  0
   -5.7066   -1.6692   11.6705 H   0  0  0  0  0  0  0  0  0  0  0  0
   -6.6646    0.0293    9.9959 H   0  0  0  0  0  0  0  0  0  0  0  0
   -7.6656   -1.2262    9.2670 H   0  0  0  0  0  0  0  0  0  0  0  0
   -6.5579   -0.2810    8.2591 H   0  0  0  0  0  0  0  0  0  0  0  0
   -1.3918   -1.9421    7.1812 H   0  0  0  0  0  0  0  0  0  0  0  0
    0.0569   -3.1107    8.9944 H   0  0  0  0  0  0  0  0  0  0  0  0
    2.4135   -3.1942    9.7083 H   0  0  0  0  0  0  0  0  0  0  0  0
    4.7342   -2.1987    9.3564 H   0  0  0  0  0  0  0  0  0  0  0  0
    7.0488    2.5728    7.8067 H   0  0  0  0  0  0  0  0  0  0  0  0
    6.1615    4.6444    8.8791 H   0  0  0  0  0  0  0  0  0  0  0  0
    4.6125    4.4467   10.8261 H   0  0  0  0  0  0  0  0  0  0  0  0
    0.7162    0.7769    7.2520 H   0  0  0  0  0  0  0  0  0  0  0  0
   -1.8840    2.6800    8.5080 H   0  0  0  0  0  0  0  0  0  0  0  0
   -0.1658    4.3406    9.2077 H   0  0  0  0  0  0  0  0  0  0  0  0
    1.4164    1.7633   12.0086 H   0  0  0  0  0  0  0  0  0  0  0  0
   -0.2212   -0.0142   11.4508 H   0  0  0  0  0  0  0  0  0  0  0  0
   -2.1419   -3.0088    2.1197 Ti  0  0  0  0  0  0  0  0  0  0  0  0
    0.2890   -1.6948    1.4324 Ti  0  0  0  0  0  0  0  0  0  0  0  0
    1.9031   -3.0677   -0.7293 Ti  0  0  0  0  0  0  0  0  0  0  0  0
   -2.5215   -0.2519    1.3037 Ti  0  0  0  0  0  0  0  0  0  0  0  0
    2.1420    0.4995    2.2044 Ti  0  0  0  0  0  0  0  0  0  0  0  0
   -0.6814    0.1896    3.6812 Ti  0  0  0  0  0  0  0  0  0  0  0  0
   -2.0368   -3.0777   -1.2005 Ti  0  0  0  0  0  0  0  0  0  0  0  0
   -0.6053   -0.7709   -2.0351 Ti  0  0  0  0  0  0  0  0  0  0  0  0
    1.9455   -1.5873   -3.4124 Ti  0  0  0  0  0  0  0  0  0  0  0  0
   -1.8782    1.7466   -1.2400 Ti  0  0  0  0  0  0  0  0  0  0  0  0
    2.4125    0.4542   -0.7742 Ti  0  0  0  0  0  0  0  0  0  0  0  0
    0.8177    1.8385   -2.9400 Ti  0  0  0  0  0  0  0  0  0  0  0  0
   -3.6784    1.2814    0.6007 C   0  0  0  0  0  0  0  0  0  0  0  0
    4.1282    0.4828    0.3873 C   0  0  0  0  0  0  0  0  0  0  0  0
    0.4555    2.2672    0.3497 C   0  0  0  0  0  0  0  0  0  0  0  0
   -3.6667    2.1188   -0.3139 C   0  0  0  0  0  0  0  0  0  0  0  0
    4.1160    0.6322    1.6214 C   0  0  0  0  0  0  0  0  0  0  0  0
   -0.6352    2.7410   -0.1189 C   0  0  0  0  0  0  0  0  0  0  0  0
    1.6301    1.7810    0.7342 C   0  0  0  0  0  0  0  0  0  0  0  0
   -3.0935   -1.9569    1.0379 O   0  0  0  0  0  0  0  0  0  0  0  0
   -0.4872   -2.6058    2.7012 O   0  0  0  0  0  0  0  0  0  0  0  0
    0.3141   -2.8889    0.1450 O   0  0  0  0  0  0  0  0  0  0  0  0
   -0.8008   -0.4359    0.9712 O   0  0  0  0  0  0  0  0  0  0  0  0
    1.9029   -1.1583    1.4694 O   0  0  0  0  0  0  0  0  0  0  0  0
   -2.3227   -0.1139    3.0248 O   0  0  0  0  0  0  0  0  0  0  0  0
    1.0138    0.4416    3.5688 O   0  0  0  0  0  0  0  0  0  0  0  0
   -1.7720   -4.5879   -1.6528 O   0  0  0  0  0  0  0  0  0  0  0  0
    0.1906   -1.1892   -3.5340 O   0  0  0  0  0  0  0  0  0  0  0  0
    2.8314   -2.1702   -1.9180 O   0  0  0  0  0  0  0  0  0  0  0  0
   -2.0546   -0.2244   -1.3375 O   0  0  0  0  0  0  0  0  0  0  0  0
    0.7685   -0.3906   -1.0637 O   0  0  0  0  0  0  0  0  0  0  0  0
   -0.9000    1.6493   -2.8186 O   0  0  0  0  0  0  0  0  0  0  0  0
    2.4153    1.3575   -2.2641 O   0  0  0  0  0  0  0  0  0  0  0  0
  1  2  1  0  0  0  0
  2  3  1  0  0  0  0
  2  4  1  0  0  0  0
  2  5  1  0  0  0  0
  5  6  2  0  0  0  0
  6  7  4  0  0  0  0
  7  8  1  0  0  0  0
  8  9  1  0  0  0  0
  9 10  4  0  0  0  0
 10 11  4  0  0  0  0
 11 12  4  0  0  0  0
 12 13  1  0  0  0  0
 13 14  1  0  0  0  0
 14 15  2  0  0  0  0
 14 16  2  0  0  0  0
 14 17  1  0  0  0  0
 17 18  4  0  0  0  0
 18 19  1  0  0  0  0
 18 20  4  0  0  0  0
 20 21  4  0  0  0  0
 21 22  4  0  0  0  0
 17 23  4  0  0  0  0
 22 23  4  0  0  0  0
 23 24  1  0  0  0  0
 12 25  4  0  0  0  0
 25 26  1  0  0  0  0
  9 27  4  0  0  0  0
 25 27  4  0  0  0  0
  7 28  4  0  0  0  0
 28 29  1  0  0  0  0
 29 30  4  0  0  0  0
 30 31  4  0  0  0  0
 31 32  4  0  0  0  0
 32 33  4  0  0  0  0
 29 34  4  0  0  0  0
 33 34  4  0  0  0  0
  5 35  1  0  0  0  0
 28 35  1  0  0  0  0
  1 36  1  0  0  0  0
  1 37  1  0  0  0  0
  1 38  1  0  0  0  0
  3 39  1  0  0  0  0
  3 40  1  0  0  0  0
  3 41  1  0  0  0  0
  4 42  1  0  0  0  0
  4 43  1  0  0  0  0
  4 44  1  0  0  0  0
  8 45  1  0  0  0  0
 10 46  1  0  0  0  0
 11 47  1  0  0  0  0
 13 48  1  0  0  0  0
 20 49  1  0  0  0  0
 21 50  1  0  0  0  0
 22 51  1  0  0  0  0
 27 52  1  0  0  0  0
 30 53  1  0  0  0  0
 31 54  1  0  0  0  0
 33 55  1  0  0  0  0
 34 56  1  0  0  0  0
 57 63  1  0  0  0  0
 63 64  1  0  0  0  0
 67 68  1  0  0  0  0
 60 69  1  0  0  0  0
 67 70  1  0  0  0  0
 66 72  1  0  0  0  0
 69 72  3  0  0  0  0
 61 73  1  0  0  0  0
 70 73  3  0  0  0  0
 66 74  1  0  0  0  0
 71 74  2  0  0  0  0
 61 75  1  0  0  0  0
 67 75  1  0  0  0  0
 71 75  2  0  0  0  0
 57 76  1  0  0  0  0
 60 76  1  0  0  0  0
 57 77  1  0  0  0  0
 58 77  1  0  0  0  0
 58 78  1  0  0  0  0
 59 78  1  0  0  0  0
 58 79  1  0  0  0  0
 60 79  1  0  0  0  0
 58 80  1  0  0  0  0
 61 80  1  0  0  0  0
 60 81  1  0  0  0  0
 62 81  1  0  0  0  0
 61 82  1  0  0  0  0
 62 82  1  0  0  0  0
 63 83  2  0  0  0  0
 64 84  1  0  0  0  0
 59 85  1  0  0  0  0
 84 85  1  0  0  0  0
 64 86  1  0  0  0  0
 66 86  1  0  0  0  0
 64 87  1  0  0  0  0
 67 87  1  0  0  0  0
 66 88  1  0  0  0  0
 68 88  1  0  0  0  0
 67 89  1  0  0  0  0
 68 89  1  0  0  0  0
M  END
