 xtb: 6.7.1pre (5071a88)
          08312620313D

103118  0     0  0            999 V2000
   -4.8886    0.5422   10.2392 C   0  0  0  0  0  0  0  0  0  0  0  0
   -4.1856    1.4625    9.5651 C   0  0  0  0  0  0  0  0  0  0  0  0
   -3.0189    1.1904    8.6768 C   0  0  0  0  0  0  0  0  0  0  0  0
   -2.1786    2.0716    8.5459 O   0  0  0  0  0  0  0  0  0  0  0  0
   -3.0586   -0.0300    8.0580 N   0  0  0  0  0  0  0  0  0  0  0  0
   -2.1328   -0.6001    7.1580 C   0  0  0  0  0  0  0  0  0  0  0  0
   -0.9360    0.0040    6.7664 C   0  0  0  0  0  0  0  0  0  0  0  0
   -0.0735   -0.6317    5.8622 C   0  0  0  0  0  0  0  0  0  0  0  0
    1.1455   -0.0796    5.4307 N   0  0  0  0  0  0  0  0  0  0  0  0
    1.8533    1.0804    5.7104 C   0  0  0  0  0  0  0  0  0  0  0  0
    1.4025    1.9863    6.5869 N   0  0  0  0  0  0  0  0  0  0  0  0
    2.1484    3.0830    6.7946 C   0  0  0  0  0  0  0  0  0  0  0  0
    3.3435    3.3102    6.1664 C   0  0  0  0  0  0  0  0  0  0  0  0
    3.7425    2.3271    5.2913 C   0  0  0  0  0  0  0  0  0  0  0  0
    4.9891    2.4461    4.5471 C   0  0  0  0  0  0  0  0  0  0  0  0
    5.0995    2.0557    3.2255 C   0  0  0  0  0  0  0  0  0  0  0  0
    6.3735    2.3146    2.8035 N   0  0  0  0  0  0  0  0  0  0  0  0
    6.8687    2.0436    1.4726 C   0  0  0  0  0  0  0  0  0  0  0  0
    7.1165    2.8608    3.8284 C   0  0  0  0  0  0  0  0  0  0  0  0
    8.4567    3.2797    3.8684 C   0  0  0  0  0  0  0  0  0  0  0  0
    8.9544    3.7840    5.0724 C   0  0  0  0  0  0  0  0  0  0  0  0
    8.1467    3.8625    6.2011 C   0  0  0  0  0  0  0  0  0  0  0  0
    6.8123    3.4441    6.1512 C   0  0  0  0  0  0  0  0  0  0  0  0
    6.2742    2.9433    4.9441 C   0  0  0  0  0  0  0  0  0  0  0  0
    3.0099    1.2188    5.0460 N   0  0  0  0  0  0  0  0  0  0  0  0
   -0.4384   -1.9022    5.3516 C   0  0  0  0  0  0  0  0  0  0  0  0
    0.4671   -2.4535    4.4701 O   0  0  0  0  0  0  0  0  0  0  0  0
    0.1470   -3.7196    3.9097 C   0  0  0  0  0  0  0  0  0  0  0  0
   -1.6334   -2.5121    5.7459 C   0  0  0  0  0  0  0  0  0  0  0  0
   -2.4925   -1.8701    6.6479 C   0  0  0  0  0  0  0  0  0  0  0  0
   -3.7204   -2.4536    7.0932 N   0  0  0  0  0  0  0  0  0  0  0  0
   -3.4422   -3.6117    7.9548 C   0  0  0  0  0  0  0  0  0  0  0  0
   -4.6682   -2.7461    5.9886 C   0  0  0  0  0  0  0  0  0  0  0  0
   -5.2384   -1.4518    5.3544 C   0  0  0  0  0  0  0  0  0  0  0  0
   -6.2643   -1.6041    4.3044 N   0  0  0  0  0  0  0  0  0  0  0  0
   -5.7522   -2.2758    3.1145 C   0  0  0  0  0  0  0  0  0  0  0  0
   -7.4856   -2.2373    4.7888 C   0  0  0  0  0  0  0  0  0  0  0  0
   -5.7021    0.8503   10.8890 H   0  0  0  0  0  0  0  0  0  0  0  0
   -4.6656   -0.5180   10.1967 H   0  0  0  0  0  0  0  0  0  0  0  0
   -4.4018    2.5195    9.6889 H   0  0  0  0  0  0  0  0  0  0  0  0
   -3.8682   -0.6275    8.1914 H   0  0  0  0  0  0  0  0  0  0  0  0
   -0.6709    0.9759    7.1646 H   0  0  0  0  0  0  0  0  0  0  0  0
    1.6517   -0.6510    4.7666 H   0  0  0  0  0  0  0  0  0  0  0  0
    1.7342    3.7947    7.5026 H   0  0  0  0  0  0  0  0  0  0  0  0
    3.9107    4.2127    6.3396 H   0  0  0  0  0  0  0  0  0  0  0  0
    4.3622    1.6201    2.5626 H   0  0  0  0  0  0  0  0  0  0  0  0
    7.6999    1.3380    1.5497 H   0  0  0  0  0  0  0  0  0  0  0  0
    7.1996    2.9858    1.0283 H   0  0  0  0  0  0  0  0  0  0  0  0
    6.0706    1.6092    0.8651 H   0  0  0  0  0  0  0  0  0  0  0  0
    9.0975    3.2121    2.9952 H   0  0  0  0  0  0  0  0  0  0  0  0
    9.9900    4.1113    5.1280 H   0  0  0  0  0  0  0  0  0  0  0  0
    8.5545    4.2462    7.1329 H   0  0  0  0  0  0  0  0  0  0  0  0
    6.2038    3.4967    7.0489 H   0  0  0  0  0  0  0  0  0  0  0  0
   -0.7761   -3.6703    3.3228 H   0  0  0  0  0  0  0  0  0  0  0  0
    0.9580   -3.9985    3.2300 H   0  0  0  0  0  0  0  0  0  0  0  0
    0.0843   -4.4897    4.6854 H   0  0  0  0  0  0  0  0  0  0  0  0
   -1.9087   -3.4890    5.3700 H   0  0  0  0  0  0  0  0  0  0  0  0
   -3.0225   -4.4525    7.3909 H   0  0  0  0  0  0  0  0  0  0  0  0
   -4.3722   -3.9509    8.4243 H   0  0  0  0  0  0  0  0  0  0  0  0
   -2.7538   -3.3449    8.7652 H   0  0  0  0  0  0  0  0  0  0  0  0
   -4.2060   -3.3874    5.2296 H   0  0  0  0  0  0  0  0  0  0  0  0
   -5.5024   -3.3174    6.4128 H   0  0  0  0  0  0  0  0  0  0  0  0
   -4.4167   -0.8569    4.9357 H   0  0  0  0  0  0  0  0  0  0  0  0
   -5.6559   -0.8250    6.1540 H   0  0  0  0  0  0  0  0  0  0  0  0
   -4.8535   -1.7730    2.7405 H   0  0  0  0  0  0  0  0  0  0  0  0
   -6.4917   -2.2352    2.3068 H   0  0  0  0  0  0  0  0  0  0  0  0
   -5.5098   -3.3281    3.2972 H   0  0  0  0  0  0  0  0  0  0  0  0
   -8.2701   -2.1820    4.0256 H   0  0  0  0  0  0  0  0  0  0  0  0
   -7.8711   -1.7146    5.6711 H   0  0  0  0  0  0  0  0  0  0  0  0
   -7.3407   -3.2920    5.0458 H   0  0  0  0  0  0  0  0  0  0  0  0
   -3.0000   -2.6000    1.2500 Ti  0  0  0  0  0  0  0  0  0  0  0  0
    0.0000   -2.6000    1.2500 Ti  0  0  0  0  0  0  0  0  0  0  0  0
    3.0000   -2.6000    1.2500 Ti  0  0  0  0  0  0  0  0  0  0  0  0
   -1.5000    0.0000    1.2500 Ti  0  0  0  0  0  0  0  0  0  0  0  0
    1.5000    0.0000    1.2500 Ti  0  0  0  0  0  0  0  0  0  0  0  0
    0.0000    2.6000    1.2500 Ti  0  0  0  0  0  0  0  0  0  0  0  0
   -3.0000   -2.6000   -1.2500 Ti  0  0  0  0  0  0  0  0  0  0  0  0
    0.0000   -2.6000   -1.2500 Ti  0  0  0  0  0  0  0  0  0  0  0  0
    3.0000   -2.6000   -1.2500 Ti  0  0  0  0  0  0  0  0  0  0  0  0
   -1.5000    0.0000   -1.2500 Ti  0  0  0  0  0  0  0  0  0  0  0  0
    1.5000    0.0000   -1.2500 Ti  0  0  0  0  0  0  0  0  0  0  0  0
    0.0000    2.6000   -1.2500 Ti  0  0  0  0  0  0  0  0  0  0  0  0
   -1.5000   -1.3000    0.0000 C   0  0  0  0  0  0  0  0  0  0  0  0
    1.5000   -1.3000    0.0000 C   0  0  0  0  0  0  0  0  0  0  0  0
    0.0000    1.3000    0.0000 C   0  0  0  0  0  0  0  0  0  0  0  0
   -3.0000    0.0000    0.0000 C   0  0  0  0  0  0  0  0  0  0  0  0
    3.0000    0.0000    0.0000 C   0  0  0  0  0  0  0  0  0  0  0  0
   -1.5000    2.6000    0.0000 C   0  0  0  0  0  0  0  0  0  0  0  0
    1.5000    2.6000    0.0000 C   0  0  0  0  0  0  0  0  0  0  0  0
   -3.0000   -2.6000    2.4500 O   0  0  0  0  0  0  0  0  0  0  0  0
    0.0000   -2.6000    2.4500 O   0  0  0  0  0  0  0  0  0  0  0  0
    3.0000   -2.6000    2.4500 O   0  0  0  0  0  0  0  0  0  0  0  0
   -1.5000    0.0000    2.4500 O   0  0  0  0  0  0  0  0  0  0  0  0
    1.5000    0.0000    2.4500 O   0  0  0  0  0  0  0  0  0  0  0  0
   -1.5000    2.6000    2.4500 O   0  0  0  0  0  0  0  0  0  0  0  0
    1.5000    2.6000    2.4500 O   0  0  0  0  0  0  0  0  0  0  0  0
   -3.0000   -2.6000   -2.4500 O   0  0  0  0  0  0  0  0  0  0  0  0
    0.0000   -2.6000   -2.4500 O   0  0  0  0  0  0  0  0  0  0  0  0
    3.0000   -2.6000   -2.4500 O   0  0  0  0  0  0  0  0  0  0  0  0
   -1.5000    0.0000   -2.4500 O   0  0  0  0  0  0  0  0  0  0  0  0
    1.5000    0.0000   -2.4500 O   0  0  0  0  0  0  0  0  0  0  0  0
   -1.5000    2.6000   -2.4500 O   0  0  0  0  0  0  0  0  0  0  0  0
    1.5000    2.6000   -2.4500 O   0  0  0  0  0  0  0  0  0  0  0  0
  1  2  2  0  0  0  0
  2  3  1  0  0  0  0
  3  4  2  0  0  0  0
  3  5  1  0  0  0  0
  5  6  1  0  0  0  0
  6  7  4  0  0  0  0
  7  8  4  0  0  0  0
  8  9  1  0  0  0  0
  9 10  1  0  0  0  0
 10 11  4  0  0  0  0
 11 12  4  0  0  0  0
 12 13  4  0  0  0  0
 13 14  4  0  0  0  0
 14 15  1  0  0  0  0
 15 16  4  0  0  0  0
 16 17  4  0  0  0  0
 17 18  1  0  0  0  0
 17 19  1  0  0  0  0
 19 20  4  0  0  0  0
 20 21  4  0  0  0  0
 21 22  4  0  0  0  0
 22 23  4  0  0  0  0
 15 24  1  0  0  0  0
 19 24  4  0  0  0  0
 23 24  4  0  0  0  0
 10 25  4  0  0  0  0
 14 25  4  0  0  0  0
  8 26  4  0  0  0  0
 26 27  1  0  0  0  0
 27 28  1  0  0  0  0
 26 29  4  0  0  0  0
  6 30  4  0  0  0  0
 29 30  4  0  0  0  0
 30 31  1  0  0  0  0
 31 32  1  0  0  0  0
 31 33  1  0  0  0  0
 33 34  1  0  0  0  0
 34 35  1  0  0  0  0
 35 36  1  0  0  0  0
 35 37  1  0  0  0  0
  1 38  1  0  0  0  0
  1 39  1  0  0  0  0
  2 40  1  0  0  0  0
  5 41  1  0  0  0  0
  7 42  1  0  0  0  0
  9 43  1  0  0  0  0
 12 44  1  0  0  0  0
 13 45  1  0  0  0  0
 16 46  1  0  0  0  0
 18 47  1  0  0  0  0
 18 48  1  0  0  0  0
 18 49  1  0  0  0  0
 20 50  1  0  0  0  0
 21 51  1  0  0  0  0
 22 52  1  0  0  0  0
 23 53  1  0  0  0  0
 28 54  1  0  0  0  0
 28 55  1  0  0  0  0
 28 56  1  0  0  0  0
 29 57  1  0  0  0  0
 32 58  1  0  0  0  0
 32 59  1  0  0  0  0
 32 60  1  0  0  0  0
 33 61  1  0  0  0  0
 33 62  1  0  0  0  0
 34 63  1  0  0  0  0
 34 64  1  0  0  0  0
 36 65  1  0  0  0  0
 36 66  1  0  0  0  0
 36 67  1  0  0  0  0
 37 68  1  0  0  0  0
 37 69  1  0  0  0  0
 37 70  1  0  0  0  0
 71 77  1  0  0  0  0
 72 78  1  0  0  0  0
 77 78  1  0  0  0  0
 73 79  1  0  0  0  0
 78 79  1  0  0  0  0
 72 83  1  0  0  0  0
 74 83  1  0  0  0  0
 77 83  1  0  0  0  0
 80 83  1  0  0  0  0
 72 84  1  0  0  0  0
 75 84  1  0  0  0  0
 79 84  1  0  0  0  0
 81 84  1  0  0  0  0
 76 85  1  0  0  0  0
 82 85  1  0  0  0  0
 74 86  1  0  0  0  0
 80 86  1  0  0  0  0
 83 86  1  0  0  0  0
 75 87  1  0  0  0  0
 81 87  1  0  0  0  0
 84 87  1  0  0  0  0
 76 88  1  0  0  0  0
 82 88  1  0  0  0  0
 85 88  1  0  0  0  0
 76 89  1  0  0  0  0
 82 89  1  0  0  0  0
 85 89  1  0  0  0  0
 71 90  2  0  0  0  0
 72 91  2  0  0  0  0
 73 92  2  0  0  0  0
 74 93  2  0  0  0  0
 75 94  2  0  0  0  0
 76 95  1  0  0  0  0
 88 95  1  0  0  0  0
 76 96  1  0  0  0  0
 89 96  1  0  0  0  0
 77 97  2  0  0  0  0
 78 98  2  0  0  0  0
 79 99  2  0  0  0  0
 80100  2  0  0  0  0
 81101  2  0  0  0  0
 82102  1  0  0  0  0
 88102  1  0  0  0  0
 82103  1  0  0  0  0
 89103  1  0  0  0  0
M  END
