 xtb: 6.7.1pre (5071a88)
          08312621563D

103114  0     0  0            999 V2000
    5.0299    3.2671   10.2710 C   0  0  0  0  0  0  0  0  0  0  0  0
    4.1617    3.3059    9.2735 C   0  0  0  0  0  0  0  0  0  0  0  0
    2.9003    2.5058    9.2016 C   0  0  0  0  0  0  0  0  0  0  0  0
    1.8643    2.9894    8.7997 O   0  0  0  0  0  0  0  0  0  0  0  0
    3.0637    1.2242    9.6306 N   0  0  0  0  0  0  0  0  0  0  0  0
    2.1207    0.2021    9.7744 C   0  0  0  0  0  0  0  0  0  0  0  0
    0.8022    0.3640    9.3551 C   0  0  0  0  0  0  0  0  0  0  0  0
   -0.1436   -0.6216    9.5854 C   0  0  0  0  0  0  0  0  0  0  0  0
   -1.4886   -0.4871    9.2831 N   0  0  0  0  0  0  0  0  0  0  0  0
   -2.1626    0.4434    8.5623 C   0  0  0  0  0  0  0  0  0  0  0  0
   -1.5322    1.2316    7.6954 N   0  0  0  0  0  0  0  0  0  0  0  0
   -2.2811    2.1969    7.1457 C   0  0  0  0  0  0  0  0  0  0  0  0
   -3.6242    2.3387    7.3851 C   0  0  0  0  0  0  0  0  0  0  0  0
   -4.2263    1.3627    8.2010 C   0  0  0  0  0  0  0  0  0  0  0  0
   -5.6462    1.3282    8.4268 C   0  0  0  0  0  0  0  0  0  0  0  0
   -6.6002    2.1071    7.8096 C   0  0  0  0  0  0  0  0  0  0  0  0
   -7.8394    1.7786    8.2401 N   0  0  0  0  0  0  0  0  0  0  0  0
   -9.0657    2.3762    7.8046 C   0  0  0  0  0  0  0  0  0  0  0  0
   -7.7312    0.7642    9.1578 C   0  0  0  0  0  0  0  0  0  0  0  0
   -8.7179    0.0886    9.8640 C   0  0  0  0  0  0  0  0  0  0  0  0
   -8.3129   -0.9007   10.7347 C   0  0  0  0  0  0  0  0  0  0  0  0
   -6.9608   -1.2066   10.9055 C   0  0  0  0  0  0  0  0  0  0  0  0
   -5.9788   -0.5438   10.2038 C   0  0  0  0  0  0  0  0  0  0  0  0
   -6.3616    0.4520    9.3085 C   0  0  0  0  0  0  0  0  0  0  0  0
   -3.4791    0.4421    8.7934 N   0  0  0  0  0  0  0  0  0  0  0  0
    0.2337   -1.8042   10.2534 C   0  0  0  0  0  0  0  0  0  0  0  0
   -0.7739   -2.7038   10.4984 O   0  0  0  0  0  0  0  0  0  0  0  0
   -0.4483   -3.8947   11.1724 C   0  0  0  0  0  0  0  0  0  0  0  0
    1.5558   -1.9812   10.6093 C   0  0  0  0  0  0  0  0  0  0  0  0
    2.5151   -1.0007   10.3761 C   0  0  0  0  0  0  0  0  0  0  0  0
    3.8541   -1.3468   10.7417 N   0  0  0  0  0  0  0  0  0  0  0  0
    4.4609   -0.5832   11.8163 C   0  0  0  0  0  0  0  0  0  0  0  0
    4.7011   -1.5870    9.5871 C   0  0  0  0  0  0  0  0  0  0  0  0
    5.9849   -2.3385    9.9467 C   0  0  0  0  0  0  0  0  0  0  0  0
    7.0258   -1.4828   10.4997 N   0  0  0  0  0  0  0  0  0  0  0  0
    7.6855   -0.6967    9.4762 C   0  0  0  0  0  0  0  0  0  0  0  0
    8.0025   -2.2591   11.2370 C   0  0  0  0  0  0  0  0  0  0  0  0
    4.9059    2.6163   11.1240 H   0  0  0  0  0  0  0  0  0  0  0  0
    5.8975    3.9066   10.2939 H   0  0  0  0  0  0  0  0  0  0  0  0
    4.2746    4.0118    8.4631 H   0  0  0  0  0  0  0  0  0  0  0  0
    3.9900    0.9906    9.9539 H   0  0  0  0  0  0  0  0  0  0  0  0
    0.5078    1.2725    8.8551 H   0  0  0  0  0  0  0  0  0  0  0  0
   -2.0891   -1.1419    9.7652 H   0  0  0  0  0  0  0  0  0  0  0  0
   -1.7374    2.8939    6.5105 H   0  0  0  0  0  0  0  0  0  0  0  0
   -4.1898    3.1375    6.9409 H   0  0  0  0  0  0  0  0  0  0  0  0
   -6.4752    2.8764    7.0716 H   0  0  0  0  0  0  0  0  0  0  0  0
   -9.6890    1.6407    7.2908 H   0  0  0  0  0  0  0  0  0  0  0  0
   -8.8478    3.1937    7.1214 H   0  0  0  0  0  0  0  0  0  0  0  0
   -9.6210    2.7671    8.6584 H   0  0  0  0  0  0  0  0  0  0  0  0
   -9.7634    0.3240    9.7363 H   0  0  0  0  0  0  0  0  0  0  0  0
   -9.0548   -1.4495   11.2954 H   0  0  0  0  0  0  0  0  0  0  0  0
   -6.6853   -1.9824   11.6047 H   0  0  0  0  0  0  0  0  0  0  0  0
   -4.9345   -0.7743   10.3310 H   0  0  0  0  0  0  0  0  0  0  0  0
   -1.3860   -4.4384   11.2765 H   0  0  0  0  0  0  0  0  0  0  0  0
   -0.0339   -3.6944   12.1650 H   0  0  0  0  0  0  0  0  0  0  0  0
    0.2600   -4.4990   10.5992 H   0  0  0  0  0  0  0  0  0  0  0  0
    1.8972   -2.8844   11.0861 H   0  0  0  0  0  0  0  0  0  0  0  0
    5.1214    0.2222   11.4709 H   0  0  0  0  0  0  0  0  0  0  0  0
    5.0713   -1.2543   12.4227 H   0  0  0  0  0  0  0  0  0  0  0  0
    3.6768   -0.1676   12.4475 H   0  0  0  0  0  0  0  0  0  0  0  0
    4.1205   -2.2112    8.9040 H   0  0  0  0  0  0  0  0  0  0  0  0
    4.9640   -0.6621    9.0478 H   0  0  0  0  0  0  0  0  0  0  0  0
    5.7319   -3.0936   10.6908 H   0  0  0  0  0  0  0  0  0  0  0  0
    6.3476   -2.8581    9.0427 H   0  0  0  0  0  0  0  0  0  0  0  0
    6.9622   -0.0729    8.9553 H   0  0  0  0  0  0  0  0  0  0  0  0
    8.2004   -1.3250    8.7315 H   0  0  0  0  0  0  0  0  0  0  0  0
    8.4202   -0.0462    9.9477 H   0  0  0  0  0  0  0  0  0  0  0  0
    8.7348   -1.5828   11.6754 H   0  0  0  0  0  0  0  0  0  0  0  0
    8.5352   -2.9845   10.6015 H   0  0  0  0  0  0  0  0  0  0  0  0
    7.5056   -2.8004   12.0408 H   0  0  0  0  0  0  0  0  0  0  0  0
   -2.2908   -2.6305    3.1689 Ti  0  0  0  0  0  0  0  0  0  0  0  0
    0.1655   -1.4162    2.3834 Ti  0  0  0  0  0  0  0  0  0  0  0  0
    1.6931   -3.0253    0.3017 Ti  0  0  0  0  0  0  0  0  0  0  0  0
   -2.5815    0.0863    2.2306 Ti  0  0  0  0  0  0  0  0  0  0  0  0
    2.0817    0.8324    2.8995 Ti  0  0  0  0  0  0  0  0  0  0  0  0
   -0.5977    0.6741    4.4838 Ti  0  0  0  0  0  0  0  0  0  0  0  0
   -2.2695   -2.9857   -0.0861 Ti  0  0  0  0  0  0  0  0  0  0  0  0
   -0.7429   -0.8205   -1.1181 Ti  0  0  0  0  0  0  0  0  0  0  0  0
    1.7187   -1.8311   -2.4947 Ti  0  0  0  0  0  0  0  0  0  0  0  0
   -1.9588    1.7744   -0.5809 Ti  0  0  0  0  0  0  0  0  0  0  0  0
    2.3032    0.4834   -0.0710 Ti  0  0  0  0  0  0  0  0  0  0  0  0
    0.6969    1.6482   -2.3492 Ti  0  0  0  0  0  0  0  0  0  0  0  0
   -3.7048    1.5704    1.3770 C   0  0  0  0  0  0  0  0  0  0  0  0
    4.0419    0.5638    1.0463 C   0  0  0  0  0  0  0  0  0  0  0  0
    0.4198    2.4443    0.8705 C   0  0  0  0  0  0  0  0  0  0  0  0
   -3.7110    2.2827    0.3616 C   0  0  0  0  0  0  0  0  0  0  0  0
    4.0483    0.8351    2.2595 C   0  0  0  0  0  0  0  0  0  0  0  0
   -0.6714    2.8849    0.3685 C   0  0  0  0  0  0  0  0  0  0  0  0
    1.5854    1.9763    1.3004 C   0  0  0  0  0  0  0  0  0  0  0  0
   -3.2580   -1.6033    2.0885 O   0  0  0  0  0  0  0  0  0  0  0  0
   -0.6164   -2.2711    3.6932 O   0  0  0  0  0  0  0  0  0  0  0  0
    0.1498   -2.7001    1.1829 O   0  0  0  0  0  0  0  0  0  0  0  0
   -0.9057   -0.1833    1.8040 O   0  0  0  0  0  0  0  0  0  0  0  0
    1.7847   -0.8895    2.3452 O   0  0  0  0  0  0  0  0  0  0  0  0
   -2.2845    0.3234    3.9371 O   0  0  0  0  0  0  0  0  0  0  0  0
    1.0900    0.9637    4.3465 O   0  0  0  0  0  0  0  0  0  0  0  0
   -1.7513   -4.4433   -0.5108 O   0  0  0  0  0  0  0  0  0  0  0  0
   -0.0308   -1.3895   -2.6024 O   0  0  0  0  0  0  0  0  0  0  0  0
    2.6332   -2.3067   -0.9972 O   0  0  0  0  0  0  0  0  0  0  0  0
   -2.1804   -0.1845   -0.4791 O   0  0  0  0  0  0  0  0  0  0  0  0
    0.6623   -0.3519   -0.2420 O   0  0  0  0  0  0  0  0  0  0  0  0
   -1.0241    1.5030   -2.1662 O   0  0  0  0  0  0  0  0  0  0  0  0
    2.2998    1.2257   -1.6568 O   0  0  0  0  0  0  0  0  0  0  0  0
  1  2  2  0  0  0  0
  2  3  1  0  0  0  0
  3  4  2  0  0  0  0
  3  5  1  0  0  0  0
  5  6  1  0  0  0  0
  6  7  4  0  0  0  0
  7  8  4  0  0  0  0
  8  9  1  0  0  0  0
  9 10  1  0  0  0  0
 10 11  4  0  0  0  0
 11 12  4  0  0  0  0
 12 13  4  0  0  0  0
 13 14  4  0  0  0  0
 14 15  1  0  0  0  0
 15 16  4  0  0  0  0
 16 17  4  0  0  0  0
 17 18  1  0  0  0  0
 17 19  1  0  0  0  0
 19 20  4  0  0  0  0
 20 21  4  0  0  0  0
 21 22  4  0  0  0  0
 22 23  4  0  0  0  0
 15 24  1  0  0  0  0
 19 24  4  0  0  0  0
 23 24  4  0  0  0  0
 10 25  4  0  0  0  0
 14 25  4  0  0  0  0
  8 26  4  0  0  0  0
 26 27  1  0  0  0  0
 27 28  1  0  0  0  0
 26 29  4  0  0  0  0
  6 30  4  0  0  0  0
 29 30  4  0  0  0  0
 30 31  1  0  0  0  0
 31 32  1  0  0  0  0
 31 33  1  0  0  0  0
 33 34  1  0  0  0  0
 34 35  1  0  0  0  0
 35 36  1  0  0  0  0
 35 37  1  0  0  0  0
  1 38  1  0  0  0  0
  1 39  1  0  0  0  0
  2 40  1  0  0  0  0
  5 41  1  0  0  0  0
  7 42  1  0  0  0  0
  9 43  1  0  0  0  0
 12 44  1  0  0  0  0
 13 45  1  0  0  0  0
 16 46  1  0  0  0  0
 18 47  1  0  0  0  0
 18 48  1  0  0  0  0
 18 49  1  0  0  0  0
 20 50  1  0  0  0  0
 21 51  1  0  0  0  0
 22 52  1  0  0  0  0
 23 53  1  0  0  0  0
 28 54  1  0  0  0  0
 28 55  1  0  0  0  0
 28 56  1  0  0  0  0
 29 57  1  0  0  0  0
 32 58  1  0  0  0  0
 32 59  1  0  0  0  0
 32 60  1  0  0  0  0
 33 61  1  0  0  0  0
 33 62  1  0  0  0  0
 34 63  1  0  0  0  0
 34 64  1  0  0  0  0
 36 65  1  0  0  0  0
 36 66  1  0  0  0  0
 36 67  1  0  0  0  0
 37 68  1  0  0  0  0
 37 69  1  0  0  0  0
 37 70  1  0  0  0  0
 71 77  1  0  0  0  0
 77 78  1  0  0  0  0
 73 79  1  0  0  0  0
 74 83  1  0  0  0  0
 81 84  1  0  0  0  0
 80 86  1  0  0  0  0
 83 86  3  0  0  0  0
 75 87  1  0  0  0  0
 84 87  3  0  0  0  0
 80 88  1  0  0  0  0
 85 88  2  0  0  0  0
 75 89  1  0  0  0  0
 81 89  1  0  0  0  0
 85 89  2  0  0  0  0
 71 90  1  0  0  0  0
 74 90  1  0  0  0  0
 71 91  1  0  0  0  0
 72 91  1  0  0  0  0
 72 92  1  0  0  0  0
 73 92  1  0  0  0  0
 72 93  1  0  0  0  0
 74 93  1  0  0  0  0
 72 94  1  0  0  0  0
 75 94  1  0  0  0  0
 74 95  1  0  0  0  0
 76 95  1  0  0  0  0
 75 96  1  0  0  0  0
 76 96  1  0  0  0  0
 77 97  2  0  0  0  0
 78 98  1  0  0  0  0
 79 98  1  0  0  0  0
 73 99  1  0  0  0  0
 79 99  1  0  0  0  0
 78100  1  0  0  0  0
 80100  1  0  0  0  0
 78101  1  0  0  0  0
 81101  1  0  0  0  0
 80102  1  0  0  0  0
 82102  1  0  0  0  0
 81103  1  0  0  0  0
 82103  1  0  0  0  0
M  END
