 xtb: 6.7.1pre (5071a88)
          09012617043D

 33 41  0     0  0            999 V2000
   -2.2908   -2.6305    3.1689 Ti  0  0  0  0  0  0  0  0  0  0  0  0
    0.1655   -1.4162    2.3834 Ti  0  0  0  0  0  0  0  0  0  0  0  0
    1.6931   -3.0253    0.3017 Ti  0  0  0  0  0  0  0  0  0  0  0  0
   -2.5815    0.0863    2.2306 Ti  0  0  0  0  0  0  0  0  0  0  0  0
    2.0817    0.8324    2.8995 Ti  0  0  0  0  0  0  0  0  0  0  0  0
   -0.5977    0.6741    4.4838 Ti  0  0  0  0  0  0  0  0  0  0  0  0
   -2.2695   -2.9857   -0.0861 Ti  0  0  0  0  0  0  0  0  0  0  0  0
   -0.7429   -0.8205   -1.1181 Ti  0  0  0  0  0  0  0  0  0  0  0  0
    1.7187   -1.8311   -2.4947 Ti  0  0  0  0  0  0  0  0  0  0  0  0
   -1.9588    1.7744   -0.5809 Ti  0  0  0  0  0  0  0  0  0  0  0  0
    2.3032    0.4834   -0.0710 Ti  0  0  0  0  0  0  0  0  0  0  0  0
    0.6969    1.6482   -2.3492 Ti  0  0  0  0  0  0  0  0  0  0  0  0
   -3.7048    1.5704    1.3770 C   0  0  0  0  0  0  0  0  0  0  0  0
    4.0419    0.5638    1.0463 C   0  0  0  0  0  0  0  0  0  0  0  0
    0.4198    2.4443    0.8705 C   0  0  0  0  0  0  0  0  0  0  0  0
   -3.7110    2.2827    0.3616 C   0  0  0  0  0  0  0  0  0  0  0  0
    4.0483    0.8351    2.2595 C   0  0  0  0  0  0  0  0  0  0  0  0
   -0.6714    2.8849    0.3685 C   0  0  0  0  0  0  0  0  0  0  0  0
    1.5854    1.9763    1.3004 C   0  0  0  0  0  0  0  0  0  0  0  0
   -3.2580   -1.6033    2.0885 O   0  0  0  0  0  0  0  0  0  0  0  0
   -0.6164   -2.2711    3.6932 O   0  0  0  0  0  0  0  0  0  0  0  0
    0.1498   -2.7001    1.1829 O   0  0  0  0  0  0  0  0  0  0  0  0
   -0.9057   -0.1833    1.8040 O   0  0  0  0  0  0  0  0  0  0  0  0
    1.7847   -0.8895    2.3452 O   0  0  0  0  0  0  0  0  0  0  0  0
   -2.2845    0.3234    3.9371 O   0  0  0  0  0  0  0  0  0  0  0  0
    1.0900    0.9637    4.3465 O   0  0  0  0  0  0  0  0  0  0  0  0
   -1.7513   -4.4433   -0.5108 O   0  0  0  0  0  0  0  0  0  0  0  0
   -0.0308   -1.3895   -2.6024 O   0  0  0  0  0  0  0  0  0  0  0  0
    2.6332   -2.3067   -0.9972 O   0  0  0  0  0  0  0  0  0  0  0  0
   -2.1804   -0.1845   -0.4791 O   0  0  0  0  0  0  0  0  0  0  0  0
    0.6623   -0.3519   -0.2420 O   0  0  0  0  0  0  0  0  0  0  0  0
   -1.0241    1.5030   -2.1662 O   0  0  0  0  0  0  0  0  0  0  0  0
    2.2998    1.2257   -1.6568 O   0  0  0  0  0  0  0  0  0  0  0  0
  1  7  1  0  0  0  0
  7  8  1  0  0  0  0
  3  9  1  0  0  0  0
  4 13  1  0  0  0  0
 11 14  1  0  0  0  0
 10 16  1  0  0  0  0
 13 16  3  0  0  0  0
  5 17  1  0  0  0  0
 14 17  3  0  0  0  0
 10 18  1  0  0  0  0
 15 18  2  0  0  0  0
  5 19  1  0  0  0  0
 11 19  1  0  0  0  0
 15 19  2  0  0  0  0
  1 20  1  0  0  0  0
  4 20  1  0  0  0  0
  1 21  1  0  0  0  0
  2 21  1  0  0  0  0
  2 22  1  0  0  0  0
  3 22  1  0  0  0  0
  2 23  1  0  0  0  0
  4 23  1  0  0  0  0
  2 24  1  0  0  0  0
  5 24  1  0  0  0  0
  4 25  1  0  0  0  0
  6 25  1  0  0  0  0
  5 26  1  0  0  0  0
  6 26  1  0  0  0  0
  7 27  2  0  0  0  0
  8 28  1  0  0  0  0
  9 28  1  0  0  0  0
  3 29  1  0  0  0  0
  9 29  1  0  0  0  0
  8 30  1  0  0  0  0
 10 30  1  0  0  0  0
  8 31  1  0  0  0  0
 11 31  1  0  0  0  0
 10 32  1  0  0  0  0
 12 32  1  0  0  0  0
 11 33  1  0  0  0  0
 12 33  1  0  0  0  0
M  END
