 xtb: 6.7.1pre (5071a88)
          09022620123D

 33 40  0     0  0            999 V2000
   -1.7527   -3.1499    4.8004 Ti  0  0  0  0  0  0  0  0  0  0  0  0
    0.4047   -1.2205    4.9451 Ti  0  0  0  0  0  0  0  0  0  0  0  0
    3.2000   -1.6255    4.0253 Ti  0  0  0  0  0  0  0  0  0  0  0  0
   -2.2411   -0.9141    3.0031 Ti  0  0  0  0  0  0  0  0  0  0  0  0
    0.5985    1.5787    6.1080 Ti  0  0  0  0  0  0  0  0  0  0  0  0
   -2.2335    0.3632    5.8094 Ti  0  0  0  0  0  0  0  0  0  0  0  0
    0.4021   -3.2960    2.1092 Ti  0  0  0  0  0  0  0  0  0  0  0  0
    1.1914   -0.3499    1.4233 Ti  0  0  0  0  0  0  0  0  0  0  0  0
    4.0025    0.0538    1.4783 Ti  0  0  0  0  0  0  0  0  0  0  0  0
   -1.2643    1.1665    0.9001 Ti  0  0  0  0  0  0  0  0  0  0  0  0
    2.2682    1.9305    3.6391 Ti  0  0  0  0  0  0  0  0  0  0  0  0
    1.4696    2.7376    0.8684 Ti  0  0  0  0  0  0  0  0  0  0  0  0
   -3.3321   -0.2017    1.4100 C   0  0  0  0  0  0  0  0  0  0  0  0
    3.0212    2.5338    5.4618 C   0  0  0  0  0  0  0  0  0  0  0  0
   -0.6049    2.3784    3.4989 C   0  0  0  0  0  0  0  0  0  0  0  0
   -3.1945    0.6379    0.5035 C   0  0  0  0  0  0  0  0  0  0  0  0
    2.3528    2.5781    6.5090 C   0  0  0  0  0  0  0  0  0  0  0  0
   -1.4886    2.1551    2.6024 C   0  0  0  0  0  0  0  0  0  0  0  0
    0.3533    2.6333    4.3904 C   0  0  0  0  0  0  0  0  0  0  0  0
   -2.2578   -2.7369    3.1321 O   0  0  0  0  0  0  0  0  0  0  0  0
   -0.6650   -2.2629    5.8846 O   0  0  0  0  0  0  0  0  0  0  0  0
    1.6083   -2.3627    4.4050 O   0  0  0  0  0  0  0  0  0  0  0  0
   -0.5813   -0.7150    3.6440 O   0  0  0  0  0  0  0  0  0  0  0  0
    1.3517    0.0351    5.6178 O   0  0  0  0  0  0  0  0  0  0  0  0
   -3.0451   -0.4531    4.4654 O   0  0  0  0  0  0  0  0  0  0  0  0
   -0.9786    1.1094    6.7120 O   0  0  0  0  0  0  0  0  0  0  0  0
    1.5996   -2.0391    1.7123 O   0  0  0  0  0  0  0  0  0  0  0  0
    2.5388    0.1206    0.4085 O   0  0  0  0  0  0  0  0  0  0  0  0
    4.1700   -0.4241    3.1864 O   0  0  0  0  0  0  0  0  0  0  0  0
   -0.4841   -0.5121    1.0048 O   0  0  0  0  0  0  0  0  0  0  0  0
    1.5139    0.5216    2.8595 O   0  0  0  0  0  0  0  0  0  0  0  0
    0.0801    2.0068    0.1424 O   0  0  0  0  0  0  0  0  0  0  0  0
    2.6399    2.8578    2.2168 O   0  0  0  0  0  0  0  0  0  0  0  0
  1  7  1  0  0  0  0
  4 13  1  0  0  0  0
 11 14  1  0  0  0  0
 10 16  1  0  0  0  0
 13 16  3  0  0  0  0
  5 17  1  0  0  0  0
 14 17  3  0  0  0  0
 10 18  1  0  0  0  0
 15 18  2  0  0  0  0
  5 19  1  0  0  0  0
 11 19  1  0  0  0  0
 15 19  2  0  0  0  0
  1 20  1  0  0  0  0
  4 20  1  0  0  0  0
  1 21  1  0  0  0  0
  2 21  1  0  0  0  0
  2 22  1  0  0  0  0
  3 22  1  0  0  0  0
  2 23  1  0  0  0  0
  4 23  1  0  0  0  0
  2 24  1  0  0  0  0
  5 24  1  0  0  0  0
  4 25  1  0  0  0  0
  6 25  1  0  0  0  0
  5 26  1  0  0  0  0
  6 26  1  0  0  0  0
  7 27  1  0  0  0  0
  8 27  1  0  0  0  0
  8 28  1  0  0  0  0
  9 28  1  0  0  0  0
  3 29  1  0  0  0  0
  9 29  1  0  0  0  0
  8 30  1  0  0  0  0
 10 30  1  0  0  0  0
  8 31  1  0  0  0  0
 11 31  1  0  0  0  0
 10 32  1  0  0  0  0
 12 32  1  0  0  0  0
 11 33  1  0  0  0  0
 12 33  1  0  0  0  0
M  END
