 xtb: 6.7.1pre (5071a88)
          09012620313D

 33 40  0     0  0            999 V2000
   -2.3106   -2.3100    3.6839 Ti  0  0  0  0  0  0  0  0  0  0  0  0
    0.2014   -1.6249    2.4080 Ti  0  0  0  0  0  0  0  0  0  0  0  0
    1.6175   -3.1814    0.3152 Ti  0  0  0  0  0  0  0  0  0  0  0  0
   -2.6102    0.0597    2.0123 Ti  0  0  0  0  0  0  0  0  0  0  0  0
    2.1629    0.6506    2.8515 Ti  0  0  0  0  0  0  0  0  0  0  0  0
   -0.6127    0.9059    4.1946 Ti  0  0  0  0  0  0  0  0  0  0  0  0
   -2.1830   -3.1523    0.3295 Ti  0  0  0  0  0  0  0  0  0  0  0  0
   -0.6208   -0.8946   -1.1263 Ti  0  0  0  0  0  0  0  0  0  0  0  0
    1.6670   -1.8132   -2.5303 Ti  0  0  0  0  0  0  0  0  0  0  0  0
   -2.0489    1.6253   -0.6272 Ti  0  0  0  0  0  0  0  0  0  0  0  0
    2.2937    0.4369   -0.1375 Ti  0  0  0  0  0  0  0  0  0  0  0  0
    0.6398    1.7795   -2.2424 Ti  0  0  0  0  0  0  0  0  0  0  0  0
   -3.9262    1.3106    1.0499 C   0  0  0  0  0  0  0  0  0  0  0  0
    4.0468    0.4626    0.9503 C   0  0  0  0  0  0  0  0  0  0  0  0
    0.2831    2.1474    1.0897 C   0  0  0  0  0  0  0  0  0  0  0  0
   -3.9167    2.0678    0.0642 C   0  0  0  0  0  0  0  0  0  0  0  0
    4.1023    0.7032    2.1690 C   0  0  0  0  0  0  0  0  0  0  0  0
   -0.9341    2.4198    0.8072 C   0  0  0  0  0  0  0  0  0  0  0  0
    1.5633    1.8628    1.3348 C   0  0  0  0  0  0  0  0  0  0  0  0
   -3.3586   -1.5533    2.4409 O   0  0  0  0  0  0  0  0  0  0  0  0
   -0.5609   -2.1384    3.9135 O   0  0  0  0  0  0  0  0  0  0  0  0
    0.3035   -3.1310    1.5387 O   0  0  0  0  0  0  0  0  0  0  0  0
   -0.9773   -0.6031    1.7033 O   0  0  0  0  0  0  0  0  0  0  0  0
    1.7948   -1.0131    2.3100 O   0  0  0  0  0  0  0  0  0  0  0  0
   -2.2585    0.7003    3.5827 O   0  0  0  0  0  0  0  0  0  0  0  0
    1.1047    0.8979    4.2236 O   0  0  0  0  0  0  0  0  0  0  0  0
   -0.9194   -2.6007   -0.8107 O   0  0  0  0  0  0  0  0  0  0  0  0
    0.0614   -0.9819   -2.7325 O   0  0  0  0  0  0  0  0  0  0  0  0
    2.4432   -2.4739   -1.0660 O   0  0  0  0  0  0  0  0  0  0  0  0
   -2.1433   -0.2163   -0.6524 O   0  0  0  0  0  0  0  0  0  0  0  0
    0.7239   -0.3949   -0.1982 O   0  0  0  0  0  0  0  0  0  0  0  0
   -1.0770    1.8780   -2.0653 O   0  0  0  0  0  0  0  0  0  0  0  0
    2.2437    1.2140   -1.6893 O   0  0  0  0  0  0  0  0  0  0  0  0
  1  7  1  0  0  0  0
  4 13  1  0  0  0  0
 11 14  1  0  0  0  0
 10 16  1  0  0  0  0
 13 16  3  0  0  0  0
  5 17  1  0  0  0  0
 14 17  3  0  0  0  0
 10 18  1  0  0  0  0
 15 18  2  0  0  0  0
  5 19  1  0  0  0  0
 11 19  1  0  0  0  0
 15 19  2  0  0  0  0
  1 20  1  0  0  0  0
  4 20  1  0  0  0  0
  1 21  1  0  0  0  0
  2 21  1  0  0  0  0
  2 22  1  0  0  0  0
  3 22  1  0  0  0  0
  2 23  1  0  0  0  0
  4 23  1  0  0  0  0
  2 24  1  0  0  0  0
  5 24  1  0  0  0  0
  4 25  1  0  0  0  0
  6 25  1  0  0  0  0
  5 26  1  0  0  0  0
  6 26  1  0  0  0  0
  7 27  1  0  0  0  0
  8 27  1  0  0  0  0
  8 28  1  0  0  0  0
  9 28  1  0  0  0  0
  3 29  1  0  0  0  0
  9 29  1  0  0  0  0
  8 30  1  0  0  0  0
 10 30  1  0  0  0  0
  8 31  1  0  0  0  0
 11 31  1  0  0  0  0
 10 32  1  0  0  0  0
 12 32  1  0  0  0  0
 11 33  1  0  0  0  0
 12 33  1  0  0  0  0
M  END
