 xtb: 6.7.1pre (5071a88)
          09022620473D

103112  0     0  0            999 V2000
   -4.8661   -3.7928    7.0422 C   0  0  0  0  0  0  0  0  0  0  0  0
   -4.1795   -2.8798    6.3201 C   0  0  0  0  0  0  0  0  0  0  0  0
   -3.1553   -1.9993    6.8630 C   0  0  0  0  0  0  0  0  0  0  0  0
   -2.3658   -1.3151    6.1331 O   0  0  0  0  0  0  0  0  0  0  0  0
   -3.1603   -1.7954    8.2121 N   0  0  0  0  0  0  0  0  0  0  0  0
   -2.3125   -0.7887    8.7286 C   0  0  0  0  0  0  0  0  0  0  0  0
   -0.9420   -0.9931    8.5860 C   0  0  0  0  0  0  0  0  0  0  0  0
   -0.0468    0.0380    8.8181 C   0  0  0  0  0  0  0  0  0  0  0  0
    1.3365   -0.1050    8.7115 N   0  0  0  0  0  0  0  0  0  0  0  0
    2.0329   -1.0390    8.0052 C   0  0  0  0  0  0  0  0  0  0  0  0
    1.4598   -2.1904    7.6093 N   0  0  0  0  0  0  0  0  0  0  0  0
    2.2621   -3.0852    7.0214 C   0  0  0  0  0  0  0  0  0  0  0  0
    3.6040   -2.8449    6.7718 C   0  0  0  0  0  0  0  0  0  0  0  0
    4.1256   -1.6008    7.2338 C   0  0  0  0  0  0  0  0  0  0  0  0
    5.5349   -1.2844    7.1884 C   0  0  0  0  0  0  0  0  0  0  0  0
    6.4808   -1.7937    6.3117 C   0  0  0  0  0  0  0  0  0  0  0  0
    7.7065   -1.3124    6.6096 N   0  0  0  0  0  0  0  0  0  0  0  0
    8.9206   -1.5912    5.8965 C   0  0  0  0  0  0  0  0  0  0  0  0
    7.6085   -0.4878    7.7044 C   0  0  0  0  0  0  0  0  0  0  0  0
    8.5992    0.1891    8.4068 C   0  0  0  0  0  0  0  0  0  0  0  0
    8.2072    0.9335    9.4994 C   0  0  0  0  0  0  0  0  0  0  0  0
    6.8661    1.0091    9.8847 C   0  0  0  0  0  0  0  0  0  0  0  0
    5.8792    0.3396    9.1946 C   0  0  0  0  0  0  0  0  0  0  0  0
    6.2503   -0.4239    8.0903 C   0  0  0  0  0  0  0  0  0  0  0  0
    3.3277   -0.7400    7.8735 N   0  0  0  0  0  0  0  0  0  0  0  0
   -0.5573    1.3128    9.1717 C   0  0  0  0  0  0  0  0  0  0  0  0
    0.3439    2.3367    9.2104 O   0  0  0  0  0  0  0  0  0  0  0  0
   -0.1592    3.6633    9.0875 C   0  0  0  0  0  0  0  0  0  0  0  0
   -1.9085    1.4564    9.4487 C   0  0  0  0  0  0  0  0  0  0  0  0
   -2.8106    0.4197    9.2271 C   0  0  0  0  0  0  0  0  0  0  0  0
   -4.1769    0.6623    9.5312 N   0  0  0  0  0  0  0  0  0  0  0  0
   -4.5994   -0.0254   10.7372 C   0  0  0  0  0  0  0  0  0  0  0  0
   -5.1088    0.5565    8.4185 C   0  0  0  0  0  0  0  0  0  0  0  0
   -6.2939    1.5093    8.6404 C   0  0  0  0  0  0  0  0  0  0  0  0
   -7.2303    1.0026    9.6374 N   0  0  0  0  0  0  0  0  0  0  0  0
   -8.1743    0.0573    9.0783 C   0  0  0  0  0  0  0  0  0  0  0  0
   -7.9162    2.0638   10.3462 C   0  0  0  0  0  0  0  0  0  0  0  0
   -4.5605   -4.0978    8.0289 H   0  0  0  0  0  0  0  0  0  0  0  0
   -5.6797   -4.3398    6.6009 H   0  0  0  0  0  0  0  0  0  0  0  0
   -4.4927   -2.6181    5.3067 H   0  0  0  0  0  0  0  0  0  0  0  0
   -3.9627   -2.1027    8.7432 H   0  0  0  0  0  0  0  0  0  0  0  0
   -0.5853   -1.9564    8.2430 H   0  0  0  0  0  0  0  0  0  0  0  0
    1.8636    0.7596    8.8473 H   0  0  0  0  0  0  0  0  0  0  0  0
    1.7920   -4.0343    6.7764 H   0  0  0  0  0  0  0  0  0  0  0  0
    4.2424   -3.6126    6.3486 H   0  0  0  0  0  0  0  0  0  0  0  0
    6.3297   -2.4473    5.4647 H   0  0  0  0  0  0  0  0  0  0  0  0
    9.4022   -0.6591    5.5972 H   0  0  0  0  0  0  0  0  0  0  0  0
    8.6943   -2.1716    5.0049 H   0  0  0  0  0  0  0  0  0  0  0  0
    9.6126   -2.1557    6.5266 H   0  0  0  0  0  0  0  0  0  0  0  0
    9.6364    0.1310    8.1157 H   0  0  0  0  0  0  0  0  0  0  0  0
    8.9504    1.4681   10.0713 H   0  0  0  0  0  0  0  0  0  0  0  0
    6.6048    1.6069   10.7447 H   0  0  0  0  0  0  0  0  0  0  0  0
    4.8427    0.3959    9.4809 H   0  0  0  0  0  0  0  0  0  0  0  0
    0.7218    4.2824    8.9107 H   0  0  0  0  0  0  0  0  0  0  0  0
   -0.6591    3.9756   10.0095 H   0  0  0  0  0  0  0  0  0  0  0  0
   -0.8400    3.7306    8.2219 H   0  0  0  0  0  0  0  0  0  0  0  0
   -2.3146    2.3995    9.7751 H   0  0  0  0  0  0  0  0  0  0  0  0
   -4.5537   -1.1219   10.6554 H   0  0  0  0  0  0  0  0  0  0  0  0
   -5.6247    0.2680   10.9475 H   0  0  0  0  0  0  0  0  0  0  0  0
   -3.9527    0.2827   11.5565 H   0  0  0  0  0  0  0  0  0  0  0  0
   -4.5718    0.8739    7.4890 H   0  0  0  0  0  0  0  0  0  0  0  0
   -5.4908   -0.4666    8.2792 H   0  0  0  0  0  0  0  0  0  0  0  0
   -5.8863    2.4555    8.9981 H   0  0  0  0  0  0  0  0  0  0  0  0
   -6.7914    1.6905    7.6743 H   0  0  0  0  0  0  0  0  0  0  0  0
   -7.6399   -0.7423    8.5704 H   0  0  0  0  0  0  0  0  0  0  0  0
   -8.8643    0.5254    8.3599 H   0  0  0  0  0  0  0  0  0  0  0  0
   -8.7594   -0.3788    9.8872 H   0  0  0  0  0  0  0  0  0  0  0  0
   -8.5446    1.6211   11.1184 H   0  0  0  0  0  0  0  0  0  0  0  0
   -8.5522    2.6770    9.6912 H   0  0  0  0  0  0  0  0  0  0  0  0
   -7.1820    2.7078   10.8267 H   0  0  0  0  0  0  0  0  0  0  0  0
   -1.7903   -3.4628    4.3145 Ti  0  0  0  0  0  0  0  0  0  0  0  0
    0.2134   -1.4439    5.1871 Ti  0  0  0  0  0  0  0  0  0  0  0  0
    3.1469   -0.8520    4.7430 Ti  0  0  0  0  0  0  0  0  0  0  0  0
   -2.4410   -0.8067    3.2600 Ti  0  0  0  0  0  0  0  0  0  0  0  0
    0.4261    1.7031    6.1295 Ti  0  0  0  0  0  0  0  0  0  0  0  0
   -2.4183    1.2497    5.3958 Ti  0  0  0  0  0  0  0  0  0  0  0  0
    0.6806   -3.5388    2.3521 Ti  0  0  0  0  0  0  0  0  0  0  0  0
    1.5672   -0.8550    2.0563 Ti  0  0  0  0  0  0  0  0  0  0  0  0
    4.2837    0.0334    2.5236 Ti  0  0  0  0  0  0  0  0  0  0  0  0
   -0.4326    0.9399    1.1154 Ti  0  0  0  0  0  0  0  0  0  0  0  0
    2.7850    2.2360    4.3569 Ti  0  0  0  0  0  0  0  0  0  0  0  0
    2.5686    1.9703    1.3644 Ti  0  0  0  0  0  0  0  0  0  0  0  0
   -2.7373   -0.0200    1.3611 C   0  0  0  0  0  0  0  0  0  0  0  0
    2.9532    3.2800    6.1214 C   0  0  0  0  0  0  0  0  0  0  0  0
    0.0173    2.7338    3.2991 C   0  0  0  0  0  0  0  0  0  0  0  0
   -2.3193    0.6522    0.4079 C   0  0  0  0  0  0  0  0  0  0  0  0
    2.0405    2.8014    6.8161 C   0  0  0  0  0  0  0  0  0  0  0  0
   -0.6879    2.5488    2.2486 C   0  0  0  0  0  0  0  0  0  0  0  0
    0.7570    2.8225    4.3933 C   0  0  0  0  0  0  0  0  0  0  0  0
   -2.8883   -2.5518    3.3156 O   0  0  0  0  0  0  0  0  0  0  0  0
   -0.5089   -3.0267    5.4445 O   0  0  0  0  0  0  0  0  0  0  0  0
    1.8337   -2.0001    4.5522 O   0  0  0  0  0  0  0  0  0  0  0  0
   -0.8298   -0.8450    3.9131 O   0  0  0  0  0  0  0  0  0  0  0  0
    0.7081   -0.0374    6.0311 O   0  0  0  0  0  0  0  0  0  0  0  0
   -3.3259    0.3211    4.2284 O   0  0  0  0  0  0  0  0  0  0  0  0
   -1.2398    1.9580    6.4779 O   0  0  0  0  0  0  0  0  0  0  0  0
    1.3384   -4.9701    2.6267 O   0  0  0  0  0  0  0  0  0  0  0  0
    3.3297   -1.0431    1.6319 O   0  0  0  0  0  0  0  0  0  0  0  0
    3.4161    0.7160    5.2011 O   0  0  0  0  0  0  0  0  0  0  0  0
    0.0382   -0.9878    1.3380 O   0  0  0  0  0  0  0  0  0  0  0  0
    1.3309    0.2917    3.2564 O   0  0  0  0  0  0  0  0  0  0  0  0
    1.2239    1.2843    0.4967 O   0  0  0  0  0  0  0  0  0  0  0  0
    3.1940    2.7911    2.7608 O   0  0  0  0  0  0  0  0  0  0  0  0
  1  2  2  0  0  0  0
  2  3  1  0  0  0  0
  3  4  4  0  0  0  0
  3  5  4  0  0  0  0
  5  6  1  0  0  0  0
  6  7  4  0  0  0  0
  7  8  4  0  0  0  0
  8  9  1  0  0  0  0
  9 10  1  0  0  0  0
 10 11  4  0  0  0  0
 11 12  4  0  0  0  0
 12 13  4  0  0  0  0
 13 14  1  0  0  0  0
 14 15  1  0  0  0  0
 15 16  4  0  0  0  0
 16 17  4  0  0  0  0
 17 18  1  0  0  0  0
 17 19  1  0  0  0  0
 19 20  4  0  0  0  0
 20 21  4  0  0  0  0
 21 22  4  0  0  0  0
 22 23  4  0  0  0  0
 15 24  1  0  0  0  0
 19 24  4  0  0  0  0
 23 24  4  0  0  0  0
 10 25  4  0  0  0  0
 14 25  4  0  0  0  0
  8 26  4  0  0  0  0
 26 27  1  0  0  0  0
 27 28  1  0  0  0  0
 26 29  4  0  0  0  0
  6 30  4  0  0  0  0
 29 30  4  0  0  0  0
 30 31  1  0  0  0  0
 31 32  1  0  0  0  0
 31 33  1  0  0  0  0
 33 34  1  0  0  0  0
 34 35  1  0  0  0  0
 35 36  1  0  0  0  0
 35 37  1  0  0  0  0
  1 38  1  0  0  0  0
  1 39  1  0  0  0  0
  2 40  1  0  0  0  0
  5 41  1  0  0  0  0
  7 42  1  0  0  0  0
  9 43  1  0  0  0  0
 12 44  1  0  0  0  0
 13 45  1  0  0  0  0
 16 46  1  0  0  0  0
 18 47  1  0  0  0  0
 18 48  1  0  0  0  0
 18 49  1  0  0  0  0
 20 50  1  0  0  0  0
 21 51  1  0  0  0  0
 22 52  1  0  0  0  0
 23 53  1  0  0  0  0
 28 54  1  0  0  0  0
 28 55  1  0  0  0  0
 28 56  1  0  0  0  0
 29 57  1  0  0  0  0
 32 58  1  0  0  0  0
 32 59  1  0  0  0  0
 32 60  1  0  0  0  0
 33 61  1  0  0  0  0
 33 62  1  0  0  0  0
 34 63  1  0  0  0  0
 34 64  1  0  0  0  0
 36 65  1  0  0  0  0
 36 66  1  0  0  0  0
 36 67  1  0  0  0  0
 37 68  1  0  0  0  0
 37 69  1  0  0  0  0
 37 70  1  0  0  0  0
 71 77  1  0  0  0  0
 77 78  1  0  0  0  0
 78 82  1  0  0  0  0
 74 83  1  0  0  0  0
 81 84  1  0  0  0  0
 80 86  1  0  0  0  0
 83 86  3  0  0  0  0
 75 87  1  0  0  0  0
 84 87  3  0  0  0  0
 80 88  1  0  0  0  0
 85 88  2  0  0  0  0
 75 89  1  0  0  0  0
 81 89  1  0  0  0  0
 85 89  2  0  0  0  0
 71 90  1  0  0  0  0
 74 90  1  0  0  0  0
 71 91  1  0  0  0  0
 72 91  1  0  0  0  0
 72 92  1  0  0  0  0
 73 92  1  0  0  0  0
 72 93  1  0  0  0  0
 74 93  1  0  0  0  0
 72 94  1  0  0  0  0
 75 94  1  0  0  0  0
 74 95  1  0  0  0  0
 76 95  1  0  0  0  0
 75 96  1  0  0  0  0
 76 96  1  0  0  0  0
 77 97  2  0  0  0  0
 78 98  1  0  0  0  0
 73 99  1  0  0  0  0
 81 99  1  0  0  0  0
 78100  1  0  0  0  0
 80100  1  0  0  0  0
 78101  1  0  0  0  0
 80102  1  0  0  0  0
 82102  1  0  0  0  0
 81103  1  0  0  0  0
 82103  1  0  0  0  0
M  END
