 xtb: 6.7.1pre (5071a88)
          08312621183D

103114  0     0  0            999 V2000
   -4.8886    0.5422   16.5553 C   0  0  0  0  0  0  0  0  0  0  0  0
   -4.1856    1.4625   15.8812 C   0  0  0  0  0  0  0  0  0  0  0  0
   -3.0189    1.1904   14.9929 C   0  0  0  0  0  0  0  0  0  0  0  0
   -2.1786    2.0716   14.8620 O   0  0  0  0  0  0  0  0  0  0  0  0
   -3.0586   -0.0300   14.3741 N   0  0  0  0  0  0  0  0  0  0  0  0
   -2.1328   -0.6001   13.4741 C   0  0  0  0  0  0  0  0  0  0  0  0
   -0.9360    0.0040   13.0826 C   0  0  0  0  0  0  0  0  0  0  0  0
   -0.0735   -0.6317   12.1783 C   0  0  0  0  0  0  0  0  0  0  0  0
    1.1455   -0.0796   11.7468 N   0  0  0  0  0  0  0  0  0  0  0  0
    1.8533    1.0804   12.0265 C   0  0  0  0  0  0  0  0  0  0  0  0
    1.4025    1.9863   12.9030 N   0  0  0  0  0  0  0  0  0  0  0  0
    2.1484    3.0830   13.1108 C   0  0  0  0  0  0  0  0  0  0  0  0
    3.3435    3.3102   12.4825 C   0  0  0  0  0  0  0  0  0  0  0  0
    3.7425    2.3271   11.6074 C   0  0  0  0  0  0  0  0  0  0  0  0
    4.9891    2.4461   10.8632 C   0  0  0  0  0  0  0  0  0  0  0  0
    5.0995    2.0557    9.5416 C   0  0  0  0  0  0  0  0  0  0  0  0
    6.3735    2.3146    9.1197 N   0  0  0  0  0  0  0  0  0  0  0  0
    6.8687    2.0436    7.7887 C   0  0  0  0  0  0  0  0  0  0  0  0
    7.1165    2.8608   10.1445 C   0  0  0  0  0  0  0  0  0  0  0  0
    8.4567    3.2797   10.1845 C   0  0  0  0  0  0  0  0  0  0  0  0
    8.9544    3.7840   11.3885 C   0  0  0  0  0  0  0  0  0  0  0  0
    8.1467    3.8625   12.5172 C   0  0  0  0  0  0  0  0  0  0  0  0
    6.8123    3.4441   12.4673 C   0  0  0  0  0  0  0  0  0  0  0  0
    6.2742    2.9433   11.2603 C   0  0  0  0  0  0  0  0  0  0  0  0
    3.0099    1.2188   11.3621 N   0  0  0  0  0  0  0  0  0  0  0  0
   -0.4384   -1.9022   11.6677 C   0  0  0  0  0  0  0  0  0  0  0  0
    0.4671   -2.4535   10.7862 O   0  0  0  0  0  0  0  0  0  0  0  0
    0.1470   -3.7196   10.2258 C   0  0  0  0  0  0  0  0  0  0  0  0
   -1.6334   -2.5121   12.0620 C   0  0  0  0  0  0  0  0  0  0  0  0
   -2.4925   -1.8701   12.9640 C   0  0  0  0  0  0  0  0  0  0  0  0
   -3.7204   -2.4536   13.4093 N   0  0  0  0  0  0  0  0  0  0  0  0
   -3.4422   -3.6117   14.2709 C   0  0  0  0  0  0  0  0  0  0  0  0
   -4.6682   -2.7461   12.3047 C   0  0  0  0  0  0  0  0  0  0  0  0
   -5.2384   -1.4518   11.6705 C   0  0  0  0  0  0  0  0  0  0  0  0
   -6.2643   -1.6041   10.6205 N   0  0  0  0  0  0  0  0  0  0  0  0
   -5.7522   -2.2758    9.4306 C   0  0  0  0  0  0  0  0  0  0  0  0
   -7.4856   -2.2373   11.1049 C   0  0  0  0  0  0  0  0  0  0  0  0
   -5.7021    0.8503   17.2051 H   0  0  0  0  0  0  0  0  0  0  0  0
   -4.6656   -0.5180   16.5129 H   0  0  0  0  0  0  0  0  0  0  0  0
   -4.4018    2.5195   16.0050 H   0  0  0  0  0  0  0  0  0  0  0  0
   -3.8682   -0.6275   14.5075 H   0  0  0  0  0  0  0  0  0  0  0  0
   -0.6709    0.9759   13.4807 H   0  0  0  0  0  0  0  0  0  0  0  0
    1.6517   -0.6510   11.0827 H   0  0  0  0  0  0  0  0  0  0  0  0
    1.7342    3.7947   13.8187 H   0  0  0  0  0  0  0  0  0  0  0  0
    3.9107    4.2127   12.6557 H   0  0  0  0  0  0  0  0  0  0  0  0
    4.3622    1.6201    8.8787 H   0  0  0  0  0  0  0  0  0  0  0  0
    7.6999    1.3380    7.8658 H   0  0  0  0  0  0  0  0  0  0  0  0
    7.1996    2.9858    7.3444 H   0  0  0  0  0  0  0  0  0  0  0  0
    6.0706    1.6092    7.1812 H   0  0  0  0  0  0  0  0  0  0  0  0
    9.0975    3.2121    9.3113 H   0  0  0  0  0  0  0  0  0  0  0  0
    9.9900    4.1113   11.4441 H   0  0  0  0  0  0  0  0  0  0  0  0
    8.5545    4.2462   13.4491 H   0  0  0  0  0  0  0  0  0  0  0  0
    6.2038    3.4967   13.3650 H   0  0  0  0  0  0  0  0  0  0  0  0
   -0.7761   -3.6703    9.6389 H   0  0  0  0  0  0  0  0  0  0  0  0
    0.9580   -3.9985    9.5461 H   0  0  0  0  0  0  0  0  0  0  0  0
    0.0843   -4.4897   11.0015 H   0  0  0  0  0  0  0  0  0  0  0  0
   -1.9087   -3.4890   11.6861 H   0  0  0  0  0  0  0  0  0  0  0  0
   -3.0225   -4.4525   13.7070 H   0  0  0  0  0  0  0  0  0  0  0  0
   -4.3722   -3.9509   14.7404 H   0  0  0  0  0  0  0  0  0  0  0  0
   -2.7538   -3.3449   15.0813 H   0  0  0  0  0  0  0  0  0  0  0  0
   -4.2060   -3.3874   11.5457 H   0  0  0  0  0  0  0  0  0  0  0  0
   -5.5024   -3.3174   12.7289 H   0  0  0  0  0  0  0  0  0  0  0  0
   -4.4167   -0.8569   11.2518 H   0  0  0  0  0  0  0  0  0  0  0  0
   -5.6559   -0.8250   12.4701 H   0  0  0  0  0  0  0  0  0  0  0  0
   -4.8535   -1.7730    9.0566 H   0  0  0  0  0  0  0  0  0  0  0  0
   -6.4917   -2.2352    8.6229 H   0  0  0  0  0  0  0  0  0  0  0  0
   -5.5098   -3.3281    9.6133 H   0  0  0  0  0  0  0  0  0  0  0  0
   -8.2701   -2.1820   10.3417 H   0  0  0  0  0  0  0  0  0  0  0  0
   -7.8711   -1.7146   11.9872 H   0  0  0  0  0  0  0  0  0  0  0  0
   -7.3407   -3.2920   11.3619 H   0  0  0  0  0  0  0  0  0  0  0  0
   -2.1419   -3.0088    2.1197 Ti  0  0  0  0  0  0  0  0  0  0  0  0
    0.2890   -1.6948    1.4324 Ti  0  0  0  0  0  0  0  0  0  0  0  0
    1.9031   -3.0677   -0.7293 Ti  0  0  0  0  0  0  0  0  0  0  0  0
   -2.5215   -0.2519    1.3037 Ti  0  0  0  0  0  0  0  0  0  0  0  0
    2.1420    0.4995    2.2044 Ti  0  0  0  0  0  0  0  0  0  0  0  0
   -0.6814    0.1896    3.6812 Ti  0  0  0  0  0  0  0  0  0  0  0  0
   -2.0368   -3.0777   -1.2005 Ti  0  0  0  0  0  0  0  0  0  0  0  0
   -0.6053   -0.7709   -2.0351 Ti  0  0  0  0  0  0  0  0  0  0  0  0
    1.9455   -1.5873   -3.4124 Ti  0  0  0  0  0  0  0  0  0  0  0  0
   -1.8782    1.7466   -1.2400 Ti  0  0  0  0  0  0  0  0  0  0  0  0
    2.4125    0.4542   -0.7742 Ti  0  0  0  0  0  0  0  0  0  0  0  0
    0.8177    1.8385   -2.9400 Ti  0  0  0  0  0  0  0  0  0  0  0  0
   -3.6784    1.2814    0.6007 C   0  0  0  0  0  0  0  0  0  0  0  0
    4.1282    0.4828    0.3873 C   0  0  0  0  0  0  0  0  0  0  0  0
    0.4555    2.2672    0.3497 C   0  0  0  0  0  0  0  0  0  0  0  0
   -3.6667    2.1188   -0.3139 C   0  0  0  0  0  0  0  0  0  0  0  0
    4.1160    0.6322    1.6214 C   0  0  0  0  0  0  0  0  0  0  0  0
   -0.6352    2.7410   -0.1189 C   0  0  0  0  0  0  0  0  0  0  0  0
    1.6301    1.7810    0.7342 C   0  0  0  0  0  0  0  0  0  0  0  0
   -3.0935   -1.9569    1.0379 O   0  0  0  0  0  0  0  0  0  0  0  0
   -0.4872   -2.6058    2.7012 O   0  0  0  0  0  0  0  0  0  0  0  0
    0.3141   -2.8889    0.1450 O   0  0  0  0  0  0  0  0  0  0  0  0
   -0.8008   -0.4359    0.9712 O   0  0  0  0  0  0  0  0  0  0  0  0
    1.9029   -1.1583    1.4694 O   0  0  0  0  0  0  0  0  0  0  0  0
   -2.3227   -0.1139    3.0248 O   0  0  0  0  0  0  0  0  0  0  0  0
    1.0138    0.4416    3.5688 O   0  0  0  0  0  0  0  0  0  0  0  0
   -1.7720   -4.5879   -1.6528 O   0  0  0  0  0  0  0  0  0  0  0  0
    0.1906   -1.1892   -3.5340 O   0  0  0  0  0  0  0  0  0  0  0  0
    2.8314   -2.1702   -1.9180 O   0  0  0  0  0  0  0  0  0  0  0  0
   -2.0546   -0.2244   -1.3375 O   0  0  0  0  0  0  0  0  0  0  0  0
    0.7685   -0.3906   -1.0637 O   0  0  0  0  0  0  0  0  0  0  0  0
   -0.9000    1.6493   -2.8186 O   0  0  0  0  0  0  0  0  0  0  0  0
    2.4153    1.3575   -2.2641 O   0  0  0  0  0  0  0  0  0  0  0  0
  1  2  2  0  0  0  0
  2  3  1  0  0  0  0
  3  4  2  0  0  0  0
  3  5  4  0  0  0  0
  5  6  1  0  0  0  0
  6  7  4  0  0  0  0
  7  8  4  0  0  0  0
  8  9  1  0  0  0  0
  9 10  1  0  0  0  0
 10 11  4  0  0  0  0
 11 12  4  0  0  0  0
 12 13  4  0  0  0  0
 13 14  4  0  0  0  0
 14 15  1  0  0  0  0
 15 16  2  0  0  0  0
 16 17  4  0  0  0  0
 17 18  1  0  0  0  0
 17 19  1  0  0  0  0
 19 20  4  0  0  0  0
 20 21  4  0  0  0  0
 21 22  4  0  0  0  0
 22 23  4  0  0  0  0
 15 24  1  0  0  0  0
 19 24  4  0  0  0  0
 23 24  4  0  0  0  0
 10 25  4  0  0  0  0
 14 25  4  0  0  0  0
  8 26  4  0  0  0  0
 26 27  1  0  0  0  0
 27 28  1  0  0  0  0
 26 29  4  0  0  0  0
  6 30  4  0  0  0  0
 29 30  4  0  0  0  0
 30 31  1  0  0  0  0
 31 32  1  0  0  0  0
 31 33  1  0  0  0  0
 33 34  1  0  0  0  0
 34 35  1  0  0  0  0
 35 36  1  0  0  0  0
 35 37  1  0  0  0  0
  1 38  1  0  0  0  0
  1 39  1  0  0  0  0
  2 40  1  0  0  0  0
  5 41  1  0  0  0  0
  7 42  1  0  0  0  0
  9 43  1  0  0  0  0
 12 44  1  0  0  0  0
 13 45  1  0  0  0  0
 16 46  1  0  0  0  0
 18 47  1  0  0  0  0
 18 48  1  0  0  0  0
 18 49  1  0  0  0  0
 20 50  1  0  0  0  0
 21 51  1  0  0  0  0
 22 52  1  0  0  0  0
 23 53  1  0  0  0  0
 28 54  1  0  0  0  0
 28 55  1  0  0  0  0
 28 56  1  0  0  0  0
 29 57  1  0  0  0  0
 32 58  1  0  0  0  0
 32 59  1  0  0  0  0
 32 60  1  0  0  0  0
 33 61  1  0  0  0  0
 33 62  1  0  0  0  0
 34 63  1  0  0  0  0
 34 64  1  0  0  0  0
 36 65  1  0  0  0  0
 36 66  1  0  0  0  0
 36 67  1  0  0  0  0
 37 68  1  0  0  0  0
 37 69  1  0  0  0  0
 37 70  1  0  0  0  0
 71 77  1  0  0  0  0
 77 78  1  0  0  0  0
 73 79  1  0  0  0  0
 74 83  1  0  0  0  0
 81 84  1  0  0  0  0
 80 86  1  0  0  0  0
 83 86  3  0  0  0  0
 75 87  1  0  0  0  0
 84 87  3  0  0  0  0
 80 88  1  0  0  0  0
 85 88  2  0  0  0  0
 75 89  1  0  0  0  0
 81 89  1  0  0  0  0
 85 89  2  0  0  0  0
 71 90  1  0  0  0  0
 74 90  1  0  0  0  0
 71 91  1  0  0  0  0
 72 91  1  0  0  0  0
 72 92  1  0  0  0  0
 73 92  1  0  0  0  0
 72 93  1  0  0  0  0
 74 93  1  0  0  0  0
 72 94  1  0  0  0  0
 75 94  1  0  0  0  0
 74 95  1  0  0  0  0
 76 95  1  0  0  0  0
 75 96  1  0  0  0  0
 76 96  1  0  0  0  0
 77 97  2  0  0  0  0
 78 98  1  0  0  0  0
 79 98  1  0  0  0  0
 73 99  1  0  0  0  0
 79 99  1  0  0  0  0
 78100  1  0  0  0  0
 80100  1  0  0  0  0
 78101  1  0  0  0  0
 81101  1  0  0  0  0
 80102  1  0  0  0  0
 82102  1  0  0  0  0
 81103  1  0  0  0  0
 82103  1  0  0  0  0
M  END
