 xtb: 6.7.1pre (5071a88)
          08312621183D

 91102  0     0  0            999 V2000
   -0.3066   -4.7013   10.5749 C   0  0  0  0  0  0  0  0  0  0  0  0
   -0.2779   -3.3234   10.2184 O   0  0  0  0  0  0  0  0  0  0  0  0
    0.9554   -2.7151   10.1688 C   0  0  0  0  0  0  0  0  0  0  0  0
    2.1754   -3.3548   10.4066 C   0  0  0  0  0  0  0  0  0  0  0  0
    3.3863   -2.6769   10.3326 C   0  0  0  0  0  0  0  0  0  0  0  0
    4.5055   -3.3630   10.5732 N   0  0  0  0  0  0  0  0  0  0  0  0
    5.6537   -2.6821   10.5032 C   0  0  0  0  0  0  0  0  0  0  0  0
    5.7856   -1.3866   10.2103 N   0  0  0  0  0  0  0  0  0  0  0  0
    4.6567   -0.7002    9.9559 C   0  0  0  0  0  0  0  0  0  0  0  0
    4.7396    0.6802    9.6289 N   0  0  0  0  0  0  0  0  0  0  0  0
    5.8417    1.5569    9.7302 C   0  0  0  0  0  0  0  0  0  0  0  0
    6.8683    1.3823   10.6694 C   0  0  0  0  0  0  0  0  0  0  0  0
    7.9136    2.3046   10.7790 C   0  0  0  0  0  0  0  0  0  0  0  0
    7.9279    3.4275    9.9625 C   0  0  0  0  0  0  0  0  0  0  0  0
    8.9379    4.3016   10.0826 F   0  0  0  0  0  0  0  0  0  0  0  0
    6.9028    3.6422    9.0477 C   0  0  0  0  0  0  0  0  0  0  0  0
    6.9003    5.0426    8.0449 Cl  0  0  0  0  0  0  0  0  0  0  0  0
    5.8588    2.7190    8.9402 C   0  0  0  0  0  0  0  0  0  0  0  0
    3.3866   -1.3132   10.0128 C   0  0  0  0  0  0  0  0  0  0  0  0
    2.1510   -0.6565    9.7797 C   0  0  0  0  0  0  0  0  0  0  0  0
    0.9429   -1.3486    9.8461 C   0  0  0  0  0  0  0  0  0  0  0  0
   -0.3141   -0.7540    9.6028 N   0  0  0  0  0  0  0  0  0  0  0  0
   -0.5844    0.5428    9.2394 C   0  0  0  0  0  0  0  0  0  0  0  0
    0.2210    1.4546    9.0959 O   0  0  0  0  0  0  0  0  0  0  0  0
   -2.0326    0.8299    9.0612 C   0  0  0  0  0  0  0  0  0  0  0  0
   -2.9136   -0.0210    8.5064 C   0  0  0  0  0  0  0  0  0  0  0  0
   -4.3771    0.2481    8.2650 C   0  0  0  0  0  0  0  0  0  0  0  0
   -4.9163    1.4102    8.9787 N   0  0  0  0  0  0  0  0  0  0  0  0
   -6.1174    1.9536    8.3265 C   0  0  0  0  0  0  0  0  0  0  0  0
   -7.3640    1.0837    8.4994 C   0  0  0  0  0  0  0  0  0  0  0  0
   -7.6466    0.8207    9.9741 C   0  0  0  0  0  0  0  0  0  0  0  0
   -6.4080    0.2748   10.6751 C   0  0  0  0  0  0  0  0  0  0  0  0
   -5.1780    1.1474   10.4045 C   0  0  0  0  0  0  0  0  0  0  0  0
    0.0977   -4.8576   11.5803 H   0  0  0  0  0  0  0  0  0  0  0  0
    0.2209   -5.3107    9.8340 H   0  0  0  0  0  0  0  0  0  0  0  0
   -1.3531   -5.0210   10.5839 H   0  0  0  0  0  0  0  0  0  0  0  0
    2.2195   -4.4103   10.6569 H   0  0  0  0  0  0  0  0  0  0  0  0
    6.5654   -3.2347   10.7026 H   0  0  0  0  0  0  0  0  0  0  0  0
    4.1778    0.8667    8.8035 H   0  0  0  0  0  0  0  0  0  0  0  0
    6.8636    0.5260   11.3390 H   0  0  0  0  0  0  0  0  0  0  0  0
    8.7084    2.1534   11.5025 H   0  0  0  0  0  0  0  0  0  0  0  0
    5.0558    2.9095    8.2325 H   0  0  0  0  0  0  0  0  0  0  0  0
    2.1560    0.4064    9.5632 H   0  0  0  0  0  0  0  0  0  0  0  0
   -1.0961   -1.3860    9.7375 H   0  0  0  0  0  0  0  0  0  0  0  0
   -2.3230    1.8366    9.3467 H   0  0  0  0  0  0  0  0  0  0  0  0
   -2.5747   -0.9871    8.1400 H   0  0  0  0  0  0  0  0  0  0  0  0
   -4.4712    0.3988    7.1812 H   0  0  0  0  0  0  0  0  0  0  0  0
   -4.9441   -0.6616    8.4929 H   0  0  0  0  0  0  0  0  0  0  0  0
   -5.9286    2.1247    7.2595 H   0  0  0  0  0  0  0  0  0  0  0  0
   -6.3168    2.9484    8.7463 H   0  0  0  0  0  0  0  0  0  0  0  0
   -8.2269    1.5840    8.0451 H   0  0  0  0  0  0  0  0  0  0  0  0
   -7.2361    0.1312    7.9713 H   0  0  0  0  0  0  0  0  0  0  0  0
   -7.9553    1.7558   10.4576 H   0  0  0  0  0  0  0  0  0  0  0  0
   -8.4792    0.1163   10.0784 H   0  0  0  0  0  0  0  0  0  0  0  0
   -6.2227   -0.7537   10.3445 H   0  0  0  0  0  0  0  0  0  0  0  0
   -6.5915    0.2267   11.7547 H   0  0  0  0  0  0  0  0  0  0  0  0
   -4.3028    0.6980   10.8877 H   0  0  0  0  0  0  0  0  0  0  0  0
   -5.3177    2.1144   10.9058 H   0  0  0  0  0  0  0  0  0  0  0  0
   -2.1419   -3.0088    2.1197 Ti  0  0  0  0  0  0  0  0  0  0  0  0
    0.2890   -1.6948    1.4324 Ti  0  0  0  0  0  0  0  0  0  0  0  0
    1.9031   -3.0677   -0.7293 Ti  0  0  0  0  0  0  0  0  0  0  0  0
   -2.5215   -0.2519    1.3037 Ti  0  0  0  0  0  0  0  0  0  0  0  0
    2.1420    0.4995    2.2044 Ti  0  0  0  0  0  0  0  0  0  0  0  0
   -0.6814    0.1896    3.6812 Ti  0  0  0  0  0  0  0  0  0  0  0  0
   -2.0368   -3.0777   -1.2005 Ti  0  0  0  0  0  0  0  0  0  0  0  0
   -0.6053   -0.7709   -2.0351 Ti  0  0  0  0  0  0  0  0  0  0  0  0
    1.9455   -1.5873   -3.4124 Ti  0  0  0  0  0  0  0  0  0  0  0  0
   -1.8782    1.7466   -1.2400 Ti  0  0  0  0  0  0  0  0  0  0  0  0
    2.4125    0.4542   -0.7742 Ti  0  0  0  0  0  0  0  0  0  0  0  0
    0.8177    1.8385   -2.9400 Ti  0  0  0  0  0  0  0  0  0  0  0  0
   -3.6784    1.2814    0.6007 C   0  0  0  0  0  0  0  0  0  0  0  0
    4.1282    0.4828    0.3873 C   0  0  0  0  0  0  0  0  0  0  0  0
    0.4555    2.2672    0.3497 C   0  0  0  0  0  0  0  0  0  0  0  0
   -3.6667    2.1188   -0.3139 C   0  0  0  0  0  0  0  0  0  0  0  0
    4.1160    0.6322    1.6214 C   0  0  0  0  0  0  0  0  0  0  0  0
   -0.6352    2.7410   -0.1189 C   0  0  0  0  0  0  0  0  0  0  0  0
    1.6301    1.7810    0.7342 C   0  0  0  0  0  0  0  0  0  0  0  0
   -3.0935   -1.9569    1.0379 O   0  0  0  0  0  0  0  0  0  0  0  0
   -0.4872   -2.6058    2.7012 O   0  0  0  0  0  0  0  0  0  0  0  0
    0.3141   -2.8889    0.1450 O   0  0  0  0  0  0  0  0  0  0  0  0
   -0.8008   -0.4359    0.9712 O   0  0  0  0  0  0  0  0  0  0  0  0
    1.9029   -1.1583    1.4694 O   0  0  0  0  0  0  0  0  0  0  0  0
   -2.3227   -0.1139    3.0248 O   0  0  0  0  0  0  0  0  0  0  0  0
    1.0138    0.4416    3.5688 O   0  0  0  0  0  0  0  0  0  0  0  0
   -1.7720   -4.5879   -1.6528 O   0  0  0  0  0  0  0  0  0  0  0  0
    0.1906   -1.1892   -3.5340 O   0  0  0  0  0  0  0  0  0  0  0  0
    2.8314   -2.1702   -1.9180 O   0  0  0  0  0  0  0  0  0  0  0  0
   -2.0546   -0.2244   -1.3375 O   0  0  0  0  0  0  0  0  0  0  0  0
    0.7685   -0.3906   -1.0637 O   0  0  0  0  0  0  0  0  0  0  0  0
   -0.9000    1.6493   -2.8186 O   0  0  0  0  0  0  0  0  0  0  0  0
    2.4153    1.3575   -2.2641 O   0  0  0  0  0  0  0  0  0  0  0  0
  1  2  1  0  0  0  0
  2  3  1  0  0  0  0
  3  4  4  0  0  0  0
  4  5  4  0  0  0  0
  5  6  4  0  0  0  0
  6  7  4  0  0  0  0
  7  8  4  0  0  0  0
  8  9  4  0  0  0  0
  9 10  1  0  0  0  0
 10 11  1  0  0  0  0
 11 12  4  0  0  0  0
 12 13  4  0  0  0  0
 13 14  4  0  0  0  0
 14 15  1  0  0  0  0
 14 16  4  0  0  0  0
 16 17  1  0  0  0  0
 11 18  4  0  0  0  0
 16 18  4  0  0  0  0
  5 19  4  0  0  0  0
  9 19  4  0  0  0  0
 19 20  4  0  0  0  0
  3 21  4  0  0  0  0
 20 21  4  0  0  0  0
 21 22  1  0  0  0  0
 22 23  1  0  0  0  0
 23 24  2  0  0  0  0
 23 25  1  0  0  0  0
 25 26  2  0  0  0  0
 26 27  1  0  0  0  0
 27 28  1  0  0  0  0
 28 29  1  0  0  0  0
 29 30  1  0  0  0  0
 30 31  1  0  0  0  0
 31 32  1  0  0  0  0
 28 33  1  0  0  0  0
 32 33  1  0  0  0  0
  1 34  1  0  0  0  0
  1 35  1  0  0  0  0
  1 36  1  0  0  0  0
  4 37  1  0  0  0  0
  7 38  1  0  0  0  0
 10 39  1  0  0  0  0
 12 40  1  0  0  0  0
 13 41  1  0  0  0  0
 18 42  1  0  0  0  0
 20 43  1  0  0  0  0
 22 44  1  0  0  0  0
 25 45  1  0  0  0  0
 26 46  1  0  0  0  0
 27 47  1  0  0  0  0
 27 48  1  0  0  0  0
 29 49  1  0  0  0  0
 29 50  1  0  0  0  0
 30 51  1  0  0  0  0
 30 52  1  0  0  0  0
 31 53  1  0  0  0  0
 31 54  1  0  0  0  0
 32 55  1  0  0  0  0
 32 56  1  0  0  0  0
 33 57  1  0  0  0  0
 33 58  1  0  0  0  0
 59 65  1  0  0  0  0
 65 66  1  0  0  0  0
 61 67  1  0  0  0  0
 62 71  1  0  0  0  0
 69 72  1  0  0  0  0
 68 74  1  0  0  0  0
 71 74  3  0  0  0  0
 63 75  1  0  0  0  0
 72 75  3  0  0  0  0
 68 76  1  0  0  0  0
 73 76  2  0  0  0  0
 63 77  1  0  0  0  0
 69 77  1  0  0  0  0
 73 77  2  0  0  0  0
 59 78  1  0  0  0  0
 62 78  1  0  0  0  0
 59 79  1  0  0  0  0
 60 79  1  0  0  0  0
 60 80  1  0  0  0  0
 61 80  1  0  0  0  0
 60 81  1  0  0  0  0
 62 81  1  0  0  0  0
 60 82  1  0  0  0  0
 63 82  1  0  0  0  0
 62 83  1  0  0  0  0
 64 83  1  0  0  0  0
 63 84  1  0  0  0  0
 64 84  1  0  0  0  0
 65 85  2  0  0  0  0
 66 86  1  0  0  0  0
 67 86  1  0  0  0  0
 61 87  1  0  0  0  0
 67 87  1  0  0  0  0
 66 88  1  0  0  0  0
 68 88  1  0  0  0  0
 66 89  1  0  0  0  0
 69 89  1  0  0  0  0
 68 90  1  0  0  0  0
 70 90  1  0  0  0  0
 69 91  1  0  0  0  0
 70 91  1  0  0  0  0
M  END
