 xtb: 6.7.1pre (5071a88)
          08312620353D

 91104  0     0  0            999 V2000
   -0.3066   -4.7013    6.3555 C   0  0  0  0  0  0  0  0  0  0  0  0
   -0.2779   -3.3234    5.9990 O   0  0  0  0  0  0  0  0  0  0  0  0
    0.9554   -2.7151    5.9494 C   0  0  0  0  0  0  0  0  0  0  0  0
    2.1754   -3.3548    6.1872 C   0  0  0  0  0  0  0  0  0  0  0  0
    3.3863   -2.6769    6.1132 C   0  0  0  0  0  0  0  0  0  0  0  0
    4.5055   -3.3630    6.3538 N   0  0  0  0  0  0  0  0  0  0  0  0
    5.6537   -2.6821    6.2838 C   0  0  0  0  0  0  0  0  0  0  0  0
    5.7856   -1.3866    5.9908 N   0  0  0  0  0  0  0  0  0  0  0  0
    4.6567   -0.7002    5.7365 C   0  0  0  0  0  0  0  0  0  0  0  0
    4.7396    0.6802    5.4095 N   0  0  0  0  0  0  0  0  0  0  0  0
    5.8417    1.5569    5.5108 C   0  0  0  0  0  0  0  0  0  0  0  0
    6.8683    1.3823    6.4500 C   0  0  0  0  0  0  0  0  0  0  0  0
    7.9136    2.3046    6.5596 C   0  0  0  0  0  0  0  0  0  0  0  0
    7.9279    3.4275    5.7431 C   0  0  0  0  0  0  0  0  0  0  0  0
    8.9379    4.3016    5.8632 F   0  0  0  0  0  0  0  0  0  0  0  0
    6.9028    3.6422    4.8283 C   0  0  0  0  0  0  0  0  0  0  0  0
    6.9003    5.0426    3.8255 Cl  0  0  0  0  0  0  0  0  0  0  0  0
    5.8588    2.7190    4.7208 C   0  0  0  0  0  0  0  0  0  0  0  0
    3.3866   -1.3132    5.7934 C   0  0  0  0  0  0  0  0  0  0  0  0
    2.1510   -0.6565    5.5603 C   0  0  0  0  0  0  0  0  0  0  0  0
    0.9429   -1.3486    5.6266 C   0  0  0  0  0  0  0  0  0  0  0  0
   -0.3141   -0.7540    5.3833 N   0  0  0  0  0  0  0  0  0  0  0  0
   -0.5844    0.5428    5.0200 C   0  0  0  0  0  0  0  0  0  0  0  0
    0.2210    1.4546    4.8764 O   0  0  0  0  0  0  0  0  0  0  0  0
   -2.0326    0.8299    4.8418 C   0  0  0  0  0  0  0  0  0  0  0  0
   -2.9136   -0.0210    4.2870 C   0  0  0  0  0  0  0  0  0  0  0  0
   -4.3771    0.2481    4.0456 C   0  0  0  0  0  0  0  0  0  0  0  0
   -4.9163    1.4102    4.7593 N   0  0  0  0  0  0  0  0  0  0  0  0
   -6.1174    1.9536    4.1070 C   0  0  0  0  0  0  0  0  0  0  0  0
   -7.3640    1.0837    4.2800 C   0  0  0  0  0  0  0  0  0  0  0  0
   -7.6466    0.8207    5.7547 C   0  0  0  0  0  0  0  0  0  0  0  0
   -6.4080    0.2748    6.4557 C   0  0  0  0  0  0  0  0  0  0  0  0
   -5.1780    1.1474    6.1851 C   0  0  0  0  0  0  0  0  0  0  0  0
    0.0977   -4.8576    7.3609 H   0  0  0  0  0  0  0  0  0  0  0  0
    0.2209   -5.3107    5.6145 H   0  0  0  0  0  0  0  0  0  0  0  0
   -1.3531   -5.0210    6.3645 H   0  0  0  0  0  0  0  0  0  0  0  0
    2.2195   -4.4103    6.4375 H   0  0  0  0  0  0  0  0  0  0  0  0
    6.5654   -3.2347    6.4832 H   0  0  0  0  0  0  0  0  0  0  0  0
    4.1778    0.8667    4.5841 H   0  0  0  0  0  0  0  0  0  0  0  0
    6.8636    0.5260    7.1196 H   0  0  0  0  0  0  0  0  0  0  0  0
    8.7084    2.1534    7.2831 H   0  0  0  0  0  0  0  0  0  0  0  0
    5.0558    2.9095    4.0131 H   0  0  0  0  0  0  0  0  0  0  0  0
    2.1560    0.4064    5.3438 H   0  0  0  0  0  0  0  0  0  0  0  0
   -1.0961   -1.3860    5.5180 H   0  0  0  0  0  0  0  0  0  0  0  0
   -2.3230    1.8366    5.1273 H   0  0  0  0  0  0  0  0  0  0  0  0
   -2.5747   -0.9871    3.9206 H   0  0  0  0  0  0  0  0  0  0  0  0
   -4.4712    0.3988    2.9618 H   0  0  0  0  0  0  0  0  0  0  0  0
   -4.9441   -0.6616    4.2735 H   0  0  0  0  0  0  0  0  0  0  0  0
   -5.9286    2.1247    3.0401 H   0  0  0  0  0  0  0  0  0  0  0  0
   -6.3168    2.9484    4.5269 H   0  0  0  0  0  0  0  0  0  0  0  0
   -8.2269    1.5840    3.8257 H   0  0  0  0  0  0  0  0  0  0  0  0
   -7.2361    0.1312    3.7519 H   0  0  0  0  0  0  0  0  0  0  0  0
   -7.9553    1.7558    6.2382 H   0  0  0  0  0  0  0  0  0  0  0  0
   -8.4792    0.1163    5.8590 H   0  0  0  0  0  0  0  0  0  0  0  0
   -6.2227   -0.7537    6.1251 H   0  0  0  0  0  0  0  0  0  0  0  0
   -6.5915    0.2267    7.5353 H   0  0  0  0  0  0  0  0  0  0  0  0
   -4.3028    0.6980    6.6682 H   0  0  0  0  0  0  0  0  0  0  0  0
   -5.3177    2.1144    6.6864 H   0  0  0  0  0  0  0  0  0  0  0  0
   -3.0000   -2.6000    1.2500 Ti  0  0  0  0  0  0  0  0  0  0  0  0
    0.0000   -2.6000    1.2500 Ti  0  0  0  0  0  0  0  0  0  0  0  0
    3.0000   -2.6000    1.2500 Ti  0  0  0  0  0  0  0  0  0  0  0  0
   -1.5000    0.0000    1.2500 Ti  0  0  0  0  0  0  0  0  0  0  0  0
    1.5000    0.0000    1.2500 Ti  0  0  0  0  0  0  0  0  0  0  0  0
    0.0000    2.6000    1.2500 Ti  0  0  0  0  0  0  0  0  0  0  0  0
   -3.0000   -2.6000   -1.2500 Ti  0  0  0  0  0  0  0  0  0  0  0  0
    0.0000   -2.6000   -1.2500 Ti  0  0  0  0  0  0  0  0  0  0  0  0
    3.0000   -2.6000   -1.2500 Ti  0  0  0  0  0  0  0  0  0  0  0  0
   -1.5000    0.0000   -1.2500 Ti  0  0  0  0  0  0  0  0  0  0  0  0
    1.5000    0.0000   -1.2500 Ti  0  0  0  0  0  0  0  0  0  0  0  0
    0.0000    2.6000   -1.2500 Ti  0  0  0  0  0  0  0  0  0  0  0  0
   -1.5000   -1.3000    0.0000 C   0  0  0  0  0  0  0  0  0  0  0  0
    1.5000   -1.3000    0.0000 C   0  0  0  0  0  0  0  0  0  0  0  0
    0.0000    1.3000    0.0000 C   0  0  0  0  0  0  0  0  0  0  0  0
   -3.0000    0.0000    0.0000 C   0  0  0  0  0  0  0  0  0  0  0  0
    3.0000    0.0000    0.0000 C   0  0  0  0  0  0  0  0  0  0  0  0
   -1.5000    2.6000    0.0000 C   0  0  0  0  0  0  0  0  0  0  0  0
    1.5000    2.6000    0.0000 C   0  0  0  0  0  0  0  0  0  0  0  0
   -3.0000   -2.6000    2.4500 O   0  0  0  0  0  0  0  0  0  0  0  0
    0.0000   -2.6000    2.4500 O   0  0  0  0  0  0  0  0  0  0  0  0
    3.0000   -2.6000    2.4500 O   0  0  0  0  0  0  0  0  0  0  0  0
   -1.5000    0.0000    2.4500 O   0  0  0  0  0  0  0  0  0  0  0  0
    1.5000    0.0000    2.4500 O   0  0  0  0  0  0  0  0  0  0  0  0
   -1.5000    2.6000    2.4500 O   0  0  0  0  0  0  0  0  0  0  0  0
    1.5000    2.6000    2.4500 O   0  0  0  0  0  0  0  0  0  0  0  0
   -3.0000   -2.6000   -2.4500 O   0  0  0  0  0  0  0  0  0  0  0  0
    0.0000   -2.6000   -2.4500 O   0  0  0  0  0  0  0  0  0  0  0  0
    3.0000   -2.6000   -2.4500 O   0  0  0  0  0  0  0  0  0  0  0  0
   -1.5000    0.0000   -2.4500 O   0  0  0  0  0  0  0  0  0  0  0  0
    1.5000    0.0000   -2.4500 O   0  0  0  0  0  0  0  0  0  0  0  0
   -1.5000    2.6000   -2.4500 O   0  0  0  0  0  0  0  0  0  0  0  0
    1.5000    2.6000   -2.4500 O   0  0  0  0  0  0  0  0  0  0  0  0
  1  2  1  0  0  0  0
  2  3  1  0  0  0  0
  3  4  4  0  0  0  0
  4  5  4  0  0  0  0
  5  6  4  0  0  0  0
  6  7  4  0  0  0  0
  7  8  4  0  0  0  0
  8  9  4  0  0  0  0
  9 10  1  0  0  0  0
 10 11  1  0  0  0  0
 11 12  4  0  0  0  0
 12 13  4  0  0  0  0
 13 14  4  0  0  0  0
 14 15  1  0  0  0  0
 14 16  4  0  0  0  0
 16 17  1  0  0  0  0
 11 18  4  0  0  0  0
 16 18  4  0  0  0  0
  5 19  4  0  0  0  0
  9 19  4  0  0  0  0
 19 20  4  0  0  0  0
  3 21  4  0  0  0  0
 20 21  4  0  0  0  0
 21 22  1  0  0  0  0
 22 23  1  0  0  0  0
 23 24  2  0  0  0  0
 23 25  1  0  0  0  0
 25 26  2  0  0  0  0
 26 27  1  0  0  0  0
 27 28  1  0  0  0  0
 28 29  1  0  0  0  0
 29 30  1  0  0  0  0
 30 31  1  0  0  0  0
 31 32  1  0  0  0  0
 28 33  1  0  0  0  0
 32 33  1  0  0  0  0
  1 34  1  0  0  0  0
  1 35  1  0  0  0  0
  1 36  1  0  0  0  0
  4 37  1  0  0  0  0
  7 38  1  0  0  0  0
 10 39  1  0  0  0  0
 12 40  1  0  0  0  0
 13 41  1  0  0  0  0
 18 42  1  0  0  0  0
 20 43  1  0  0  0  0
 22 44  1  0  0  0  0
 25 45  1  0  0  0  0
 26 46  1  0  0  0  0
 27 47  1  0  0  0  0
 27 48  1  0  0  0  0
 29 49  1  0  0  0  0
 29 50  1  0  0  0  0
 30 51  1  0  0  0  0
 30 52  1  0  0  0  0
 31 53  1  0  0  0  0
 31 54  1  0  0  0  0
 32 55  1  0  0  0  0
 32 56  1  0  0  0  0
 33 57  1  0  0  0  0
 33 58  1  0  0  0  0
 59 60  1  0  0  0  0
 60 61  1  0  0  0  0
 59 65  1  0  0  0  0
 60 66  1  0  0  0  0
 65 66  1  0  0  0  0
 61 67  1  0  0  0  0
 66 67  1  0  0  0  0
 62 71  1  0  0  0  0
 68 71  1  0  0  0  0
 63 72  1  0  0  0  0
 69 72  1  0  0  0  0
 64 73  1  0  0  0  0
 70 73  1  0  0  0  0
 62 74  1  0  0  0  0
 68 74  1  0  0  0  0
 71 74  1  0  0  0  0
 63 75  1  0  0  0  0
 69 75  1  0  0  0  0
 72 75  1  0  0  0  0
 64 76  1  0  0  0  0
 70 76  1  0  0  0  0
 73 76  1  0  0  0  0
 64 77  1  0  0  0  0
 70 77  1  0  0  0  0
 73 77  1  0  0  0  0
 59 78  2  0  0  0  0
 60 79  2  0  0  0  0
 61 80  2  0  0  0  0
 62 81  2  0  0  0  0
 63 82  2  0  0  0  0
 64 83  1  0  0  0  0
 76 83  1  0  0  0  0
 64 84  1  0  0  0  0
 77 84  1  0  0  0  0
 65 85  2  0  0  0  0
 66 86  2  0  0  0  0
 67 87  2  0  0  0  0
 68 88  2  0  0  0  0
 69 89  2  0  0  0  0
 70 90  1  0  0  0  0
 76 90  1  0  0  0  0
 70 91  1  0  0  0  0
 77 91  1  0  0  0  0
M  END
