 xtb: 6.7.1pre (5071a88)
          08312621553D

 91102  0     0  0            999 V2000
   -0.4976   -5.2056   12.6138 C   0  0  0  0  0  0  0  0  0  0  0  0
   -0.2784   -3.8610   12.2003 O   0  0  0  0  0  0  0  0  0  0  0  0
   -1.3701   -3.1634   11.7362 C   0  0  0  0  0  0  0  0  0  0  0  0
   -2.6697   -3.6712   11.6500 C   0  0  0  0  0  0  0  0  0  0  0  0
   -3.7267   -2.9053   11.1731 C   0  0  0  0  0  0  0  0  0  0  0  0
   -4.9369   -3.4660   11.1246 N   0  0  0  0  0  0  0  0  0  0  0  0
   -5.9313   -2.7076   10.6524 C   0  0  0  0  0  0  0  0  0  0  0  0
   -5.8287   -1.4449   10.2317 N   0  0  0  0  0  0  0  0  0  0  0  0
   -4.6101   -0.8781   10.2935 C   0  0  0  0  0  0  0  0  0  0  0  0
   -4.4451    0.4680    9.8690 N   0  0  0  0  0  0  0  0  0  0  0  0
   -5.3431    1.2976    9.1626 C   0  0  0  0  0  0  0  0  0  0  0  0
   -6.3097    0.7939    8.2802 C   0  0  0  0  0  0  0  0  0  0  0  0
   -7.1424    1.6502    7.5532 C   0  0  0  0  0  0  0  0  0  0  0  0
   -6.9981    3.0248    7.6852 C   0  0  0  0  0  0  0  0  0  0  0  0
   -7.8050    3.8305    6.9792 F   0  0  0  0  0  0  0  0  0  0  0  0
   -6.0234    3.5498    8.5266 C   0  0  0  0  0  0  0  0  0  0  0  0
   -5.8225    5.2535    8.6814 Cl  0  0  0  0  0  0  0  0  0  0  0  0
   -5.1919    2.6919    9.2520 C   0  0  0  0  0  0  0  0  0  0  0  0
   -3.4844   -1.5882   10.7630 C   0  0  0  0  0  0  0  0  0  0  0  0
   -2.1656   -1.0713   10.8377 C   0  0  0  0  0  0  0  0  0  0  0  0
   -1.1154   -1.8431   11.3317 C   0  0  0  0  0  0  0  0  0  0  0  0
    0.2131   -1.3761   11.4494 N   0  0  0  0  0  0  0  0  0  0  0  0
    0.6880   -0.1074   11.2036 C   0  0  0  0  0  0  0  0  0  0  0  0
    0.0325    0.8656   10.8543 O   0  0  0  0  0  0  0  0  0  0  0  0
    2.1580   -0.0133   11.4338 C   0  0  0  0  0  0  0  0  0  0  0  0
    2.8105    1.1407   11.2199 C   0  0  0  0  0  0  0  0  0  0  0  0
    4.2833    1.3288   11.4309 C   0  0  0  0  0  0  0  0  0  0  0  0
    4.9387    1.8568   10.2322 N   0  0  0  0  0  0  0  0  0  0  0  0
    5.0278    0.8811    9.1342 C   0  0  0  0  0  0  0  0  0  0  0  0
    6.4376    0.3436    8.8932 C   0  0  0  0  0  0  0  0  0  0  0  0
    7.4249    1.4704    8.5974 C   0  0  0  0  0  0  0  0  0  0  0  0
    7.0693    2.7608    9.3335 C   0  0  0  0  0  0  0  0  0  0  0  0
    6.2245    2.4819   10.5741 C   0  0  0  0  0  0  0  0  0  0  0  0
   -0.8490   -5.8224   11.7802 H   0  0  0  0  0  0  0  0  0  0  0  0
    0.4622   -5.6121   12.9468 H   0  0  0  0  0  0  0  0  0  0  0  0
   -1.1894   -5.2495   13.4614 H   0  0  0  0  0  0  0  0  0  0  0  0
   -2.9000   -4.6872   11.9557 H   0  0  0  0  0  0  0  0  0  0  0  0
   -6.9157   -3.1606   10.6070 H   0  0  0  0  0  0  0  0  0  0  0  0
   -3.9232    0.9826   10.5725 H   0  0  0  0  0  0  0  0  0  0  0  0
   -6.4222   -0.2780    8.1386 H   0  0  0  0  0  0  0  0  0  0  0  0
   -7.8941    1.2487    6.8812 H   0  0  0  0  0  0  0  0  0  0  0  0
   -4.4233    3.1173    9.8925 H   0  0  0  0  0  0  0  0  0  0  0  0
   -1.9786   -0.0630   10.4836 H   0  0  0  0  0  0  0  0  0  0  0  0
    0.8568   -2.0821   11.7911 H   0  0  0  0  0  0  0  0  0  0  0  0
    2.6862   -0.8958   11.7710 H   0  0  0  0  0  0  0  0  0  0  0  0
    2.2637    2.0189   10.8791 H   0  0  0  0  0  0  0  0  0  0  0  0
    4.7680    0.4023   11.7647 H   0  0  0  0  0  0  0  0  0  0  0  0
    4.3831    2.0498   12.2531 H   0  0  0  0  0  0  0  0  0  0  0  0
    4.3458    0.0344    9.2747 H   0  0  0  0  0  0  0  0  0  0  0  0
    4.6869    1.3838    8.2200 H   0  0  0  0  0  0  0  0  0  0  0  0
    6.7703   -0.2137    9.7784 H   0  0  0  0  0  0  0  0  0  0  0  0
    6.4341   -0.3694    8.0609 H   0  0  0  0  0  0  0  0  0  0  0  0
    8.4330    1.1425    8.8774 H   0  0  0  0  0  0  0  0  0  0  0  0
    7.4549    1.6717    7.5199 H   0  0  0  0  0  0  0  0  0  0  0  0
    6.5164    3.4265    8.6580 H   0  0  0  0  0  0  0  0  0  0  0  0
    7.9864    3.2933    9.6100 H   0  0  0  0  0  0  0  0  0  0  0  0
    6.0345    3.4286   11.0936 H   0  0  0  0  0  0  0  0  0  0  0  0
    6.8007    1.8463   11.2600 H   0  0  0  0  0  0  0  0  0  0  0  0
   -2.1419   -3.0088    2.1197 Ti  0  0  0  0  0  0  0  0  0  0  0  0
    0.2890   -1.6948    1.4324 Ti  0  0  0  0  0  0  0  0  0  0  0  0
    1.9031   -3.0677   -0.7293 Ti  0  0  0  0  0  0  0  0  0  0  0  0
   -2.5215   -0.2519    1.3037 Ti  0  0  0  0  0  0  0  0  0  0  0  0
    2.1420    0.4995    2.2044 Ti  0  0  0  0  0  0  0  0  0  0  0  0
   -0.6814    0.1896    3.6812 Ti  0  0  0  0  0  0  0  0  0  0  0  0
   -2.0368   -3.0777   -1.2005 Ti  0  0  0  0  0  0  0  0  0  0  0  0
   -0.6053   -0.7709   -2.0351 Ti  0  0  0  0  0  0  0  0  0  0  0  0
    1.9455   -1.5873   -3.4124 Ti  0  0  0  0  0  0  0  0  0  0  0  0
   -1.8782    1.7466   -1.2400 Ti  0  0  0  0  0  0  0  0  0  0  0  0
    2.4125    0.4542   -0.7742 Ti  0  0  0  0  0  0  0  0  0  0  0  0
    0.8177    1.8385   -2.9400 Ti  0  0  0  0  0  0  0  0  0  0  0  0
   -3.6784    1.2814    0.6007 C   0  0  0  0  0  0  0  0  0  0  0  0
    4.1282    0.4828    0.3873 C   0  0  0  0  0  0  0  0  0  0  0  0
    0.4555    2.2672    0.3497 C   0  0  0  0  0  0  0  0  0  0  0  0
   -3.6667    2.1188   -0.3139 C   0  0  0  0  0  0  0  0  0  0  0  0
    4.1160    0.6322    1.6214 C   0  0  0  0  0  0  0  0  0  0  0  0
   -0.6352    2.7410   -0.1189 C   0  0  0  0  0  0  0  0  0  0  0  0
    1.6301    1.7810    0.7342 C   0  0  0  0  0  0  0  0  0  0  0  0
   -3.0935   -1.9569    1.0379 O   0  0  0  0  0  0  0  0  0  0  0  0
   -0.4872   -2.6058    2.7012 O   0  0  0  0  0  0  0  0  0  0  0  0
    0.3141   -2.8889    0.1450 O   0  0  0  0  0  0  0  0  0  0  0  0
   -0.8008   -0.4359    0.9712 O   0  0  0  0  0  0  0  0  0  0  0  0
    1.9029   -1.1583    1.4694 O   0  0  0  0  0  0  0  0  0  0  0  0
   -2.3227   -0.1139    3.0248 O   0  0  0  0  0  0  0  0  0  0  0  0
    1.0138    0.4416    3.5688 O   0  0  0  0  0  0  0  0  0  0  0  0
   -1.7720   -4.5879   -1.6528 O   0  0  0  0  0  0  0  0  0  0  0  0
    0.1906   -1.1892   -3.5340 O   0  0  0  0  0  0  0  0  0  0  0  0
    2.8314   -2.1702   -1.9180 O   0  0  0  0  0  0  0  0  0  0  0  0
   -2.0546   -0.2244   -1.3375 O   0  0  0  0  0  0  0  0  0  0  0  0
    0.7685   -0.3906   -1.0637 O   0  0  0  0  0  0  0  0  0  0  0  0
   -0.9000    1.6493   -2.8186 O   0  0  0  0  0  0  0  0  0  0  0  0
    2.4153    1.3575   -2.2641 O   0  0  0  0  0  0  0  0  0  0  0  0
  1  2  1  0  0  0  0
  2  3  1  0  0  0  0
  3  4  4  0  0  0  0
  4  5  4  0  0  0  0
  5  6  4  0  0  0  0
  6  7  4  0  0  0  0
  7  8  4  0  0  0  0
  8  9  4  0  0  0  0
  9 10  1  0  0  0  0
 10 11  1  0  0  0  0
 11 12  4  0  0  0  0
 12 13  4  0  0  0  0
 13 14  4  0  0  0  0
 14 15  1  0  0  0  0
 14 16  4  0  0  0  0
 16 17  1  0  0  0  0
 11 18  4  0  0  0  0
 16 18  4  0  0  0  0
  5 19  4  0  0  0  0
  9 19  4  0  0  0  0
 19 20  4  0  0  0  0
  3 21  4  0  0  0  0
 20 21  4  0  0  0  0
 21 22  1  0  0  0  0
 22 23  1  0  0  0  0
 23 24  2  0  0  0  0
 23 25  1  0  0  0  0
 25 26  2  0  0  0  0
 26 27  1  0  0  0  0
 27 28  1  0  0  0  0
 28 29  1  0  0  0  0
 29 30  1  0  0  0  0
 30 31  1  0  0  0  0
 31 32  1  0  0  0  0
 28 33  1  0  0  0  0
 32 33  1  0  0  0  0
  1 34  1  0  0  0  0
  1 35  1  0  0  0  0
  1 36  1  0  0  0  0
  4 37  1  0  0  0  0
  7 38  1  0  0  0  0
 10 39  1  0  0  0  0
 12 40  1  0  0  0  0
 13 41  1  0  0  0  0
 18 42  1  0  0  0  0
 20 43  1  0  0  0  0
 22 44  1  0  0  0  0
 25 45  1  0  0  0  0
 26 46  1  0  0  0  0
 27 47  1  0  0  0  0
 27 48  1  0  0  0  0
 29 49  1  0  0  0  0
 29 50  1  0  0  0  0
 30 51  1  0  0  0  0
 30 52  1  0  0  0  0
 31 53  1  0  0  0  0
 31 54  1  0  0  0  0
 32 55  1  0  0  0  0
 32 56  1  0  0  0  0
 33 57  1  0  0  0  0
 33 58  1  0  0  0  0
 59 65  1  0  0  0  0
 65 66  1  0  0  0  0
 61 67  1  0  0  0  0
 62 71  1  0  0  0  0
 69 72  1  0  0  0  0
 68 74  1  0  0  0  0
 71 74  3  0  0  0  0
 63 75  1  0  0  0  0
 72 75  3  0  0  0  0
 68 76  1  0  0  0  0
 73 76  2  0  0  0  0
 63 77  1  0  0  0  0
 69 77  1  0  0  0  0
 73 77  2  0  0  0  0
 59 78  1  0  0  0  0
 62 78  1  0  0  0  0
 59 79  1  0  0  0  0
 60 79  1  0  0  0  0
 60 80  1  0  0  0  0
 61 80  1  0  0  0  0
 60 81  1  0  0  0  0
 62 81  1  0  0  0  0
 60 82  1  0  0  0  0
 63 82  1  0  0  0  0
 62 83  1  0  0  0  0
 64 83  1  0  0  0  0
 63 84  1  0  0  0  0
 64 84  1  0  0  0  0
 65 85  2  0  0  0  0
 66 86  1  0  0  0  0
 67 86  1  0  0  0  0
 61 87  1  0  0  0  0
 67 87  1  0  0  0  0
 66 88  1  0  0  0  0
 68 88  1  0  0  0  0
 66 89  1  0  0  0  0
 69 89  1  0  0  0  0
 68 90  1  0  0  0  0
 70 90  1  0  0  0  0
 69 91  1  0  0  0  0
 70 91  1  0  0  0  0
M  END
