 xtb: 6.7.1pre (5071a88)
          08312620543D

 33 43  0     0  0            999 V2000
   -3.0000   -2.6000    1.2500 Ti  0  0  0  0  0  0  0  0  0  0  0  0
    0.0000   -2.6000    1.2500 Ti  0  0  0  0  0  0  0  0  0  0  0  0
    3.0000   -2.6000    1.2500 Ti  0  0  0  0  0  0  0  0  0  0  0  0
   -1.5000    0.0000    1.2500 Ti  0  0  0  0  0  0  0  0  0  0  0  0
    1.5000    0.0000    1.2500 Ti  0  0  0  0  0  0  0  0  0  0  0  0
    0.0000    2.6000    1.2500 Ti  0  0  0  0  0  0  0  0  0  0  0  0
   -3.0000   -2.6000   -1.2500 Ti  0  0  0  0  0  0  0  0  0  0  0  0
    0.0000   -2.6000   -1.2500 Ti  0  0  0  0  0  0  0  0  0  0  0  0
    3.0000   -2.6000   -1.2500 Ti  0  0  0  0  0  0  0  0  0  0  0  0
   -1.5000    0.0000   -1.2500 Ti  0  0  0  0  0  0  0  0  0  0  0  0
    1.5000    0.0000   -1.2500 Ti  0  0  0  0  0  0  0  0  0  0  0  0
    0.0000    2.6000   -1.2500 Ti  0  0  0  0  0  0  0  0  0  0  0  0
   -1.5000   -1.3000    0.0000 C   0  0  0  0  0  0  0  0  0  0  0  0
    1.5000   -1.3000    0.0000 C   0  0  0  0  0  0  0  0  0  0  0  0
    0.0000    1.3000    0.0000 C   0  0  0  0  0  0  0  0  0  0  0  0
   -3.0000    0.0000    0.0000 C   0  0  0  0  0  0  0  0  0  0  0  0
    3.0000    0.0000    0.0000 C   0  0  0  0  0  0  0  0  0  0  0  0
   -1.5000    2.6000    0.0000 C   0  0  0  0  0  0  0  0  0  0  0  0
    1.5000    2.6000    0.0000 C   0  0  0  0  0  0  0  0  0  0  0  0
   -3.0000   -2.6000    2.4500 O   0  0  0  0  0  0  0  0  0  0  0  0
    0.0000   -2.6000    2.4500 O   0  0  0  0  0  0  0  0  0  0  0  0
    3.0000   -2.6000    2.4500 O   0  0  0  0  0  0  0  0  0  0  0  0
   -1.5000    0.0000    2.4500 O   0  0  0  0  0  0  0  0  0  0  0  0
    1.5000    0.0000    2.4500 O   0  0  0  0  0  0  0  0  0  0  0  0
   -1.5000    2.6000    2.4500 O   0  0  0  0  0  0  0  0  0  0  0  0
    1.5000    2.6000    2.4500 O   0  0  0  0  0  0  0  0  0  0  0  0
   -3.0000   -2.6000   -2.4500 O   0  0  0  0  0  0  0  0  0  0  0  0
    0.0000   -2.6000   -2.4500 O   0  0  0  0  0  0  0  0  0  0  0  0
    3.0000   -2.6000   -2.4500 O   0  0  0  0  0  0  0  0  0  0  0  0
   -1.5000    0.0000   -2.4500 O   0  0  0  0  0  0  0  0  0  0  0  0
    1.5000    0.0000   -2.4500 O   0  0  0  0  0  0  0  0  0  0  0  0
   -1.5000    2.6000   -2.4500 O   0  0  0  0  0  0  0  0  0  0  0  0
    1.5000    2.6000   -2.4500 O   0  0  0  0  0  0  0  0  0  0  0  0
  1  2  1  0  0  0  0
  2  3  1  0  0  0  0
  1  7  1  0  0  0  0
  2  8  1  0  0  0  0
  7  8  1  0  0  0  0
  3  9  1  0  0  0  0
  8  9  1  0  0  0  0
  4 13  1  0  0  0  0
 10 13  1  0  0  0  0
  5 14  1  0  0  0  0
 11 14  1  0  0  0  0
  6 15  1  0  0  0  0
 12 15  1  0  0  0  0
  4 16  1  0  0  0  0
 10 16  1  0  0  0  0
 13 16  1  0  0  0  0
  5 17  1  0  0  0  0
 11 17  1  0  0  0  0
 14 17  1  0  0  0  0
  6 18  1  0  0  0  0
 12 18  1  0  0  0  0
 15 18  1  0  0  0  0
  6 19  1  0  0  0  0
 12 19  1  0  0  0  0
 15 19  1  0  0  0  0
  1 20  2  0  0  0  0
  2 21  2  0  0  0  0
  3 22  2  0  0  0  0
  4 23  2  0  0  0  0
  5 24  2  0  0  0  0
  6 25  1  0  0  0  0
 18 25  1  0  0  0  0
  6 26  1  0  0  0  0
 19 26  1  0  0  0  0
  7 27  2  0  0  0  0
  8 28  2  0  0  0  0
  9 29  2  0  0  0  0
 10 30  2  0  0  0  0
 11 31  2  0  0  0  0
 12 32  1  0  0  0  0
 18 32  1  0  0  0  0
 12 33  1  0  0  0  0
 19 33  1  0  0  0  0
M  END
