 xtb: 6.7.1pre (5071a88)
          08312621563D

 95107  0     0  0            999 V2000
   -8.0451   -1.9950   12.0923 C   0  0  0  0  0  0  0  0  0  0  0  0
   -6.7459   -1.4175   12.3879 N   0  0  0  0  0  0  0  0  0  0  0  0
   -6.6240   -0.7405   13.6708 C   0  0  0  0  0  0  0  0  0  0  0  0
   -5.7933   -1.3648   11.3692 C   0  0  0  0  0  0  0  0  0  0  0  0
   -6.0823   -1.6501   10.2083 O   0  0  0  0  0  0  0  0  0  0  0  0
   -4.4378   -0.9841   11.7293 C   0  0  0  0  0  0  0  0  0  0  0  0
   -3.6633   -1.4671   12.7783 C   0  0  0  0  0  0  0  0  0  0  0  0
   -2.3808   -0.8813   12.6938 C   0  0  0  0  0  0  0  0  0  0  0  0
   -1.1929   -0.9469   13.4077 C   0  0  0  0  0  0  0  0  0  0  0  0
   -0.1306   -0.2197   13.0020 N   0  0  0  0  0  0  0  0  0  0  0  0
   -0.2273    0.5331   11.8888 C   0  0  0  0  0  0  0  0  0  0  0  0
    0.8473    1.3151   11.4621 N   0  0  0  0  0  0  0  0  0  0  0  0
    2.2056    0.9614   11.4757 C   0  0  0  0  0  0  0  0  0  0  0  0
    3.1339    1.9403   11.1324 C   0  0  0  0  0  0  0  0  0  0  0  0
    4.4993    1.6369   11.1260 C   0  0  0  0  0  0  0  0  0  0  0  0
    4.9554    0.3586   11.4549 C   0  0  0  0  0  0  0  0  0  0  0  0
    6.3279    0.0682   11.4628 N   0  0  0  0  0  0  0  0  0  0  0  0
    6.7548   -1.2044   12.0838 C   0  0  0  0  0  0  0  0  0  0  0  0
    8.2948   -1.2762   12.1952 C   0  0  0  0  0  0  0  0  0  0  0  0
    8.9858   -1.0766   10.9052 N   0  0  0  0  0  0  0  0  0  0  0  0
    8.5596    0.2246   10.3524 C   0  0  0  0  0  0  0  0  0  0  0  0
    7.0275    0.3639   10.1894 C   0  0  0  0  0  0  0  0  0  0  0  0
    3.9449   -0.5387   11.8048 C   0  0  0  0  0  0  0  0  0  0  0  0
    2.6113   -0.2755   11.8093 N   0  0  0  0  0  0  0  0  0  0  0  0
   -1.3413    0.6729   11.1468 N   0  0  0  0  0  0  0  0  0  0  0  0
   -2.3814   -0.0555   11.5854 C   0  0  0  0  0  0  0  0  0  0  0  0
   -3.6316   -0.1122   11.0075 N   0  0  0  0  0  0  0  0  0  0  0  0
   -4.0383    0.6297    9.8221 C   0  0  0  0  0  0  0  0  0  0  0  0
   -3.3903    0.1074    8.5314 C   0  0  0  0  0  0  0  0  0  0  0  0
   -3.2381    1.3434    7.6581 C   0  0  0  0  0  0  0  0  0  0  0  0
   -2.8651    2.4291    8.6535 C   0  0  0  0  0  0  0  0  0  0  0  0
   -3.7544    2.1463    9.8601 C   0  0  0  0  0  0  0  0  0  0  0  0
   -8.3774   -2.5853   12.9514 H   0  0  0  0  0  0  0  0  0  0  0  0
   -8.7553   -1.1839   11.9066 H   0  0  0  0  0  0  0  0  0  0  0  0
   -8.0091   -2.6456   11.2142 H   0  0  0  0  0  0  0  0  0  0  0  0
   -6.5164   -1.4965   14.4536 H   0  0  0  0  0  0  0  0  0  0  0  0
   -5.7797   -0.0497   13.7020 H   0  0  0  0  0  0  0  0  0  0  0  0
   -7.5339   -0.1600   13.8539 H   0  0  0  0  0  0  0  0  0  0  0  0
   -3.9910   -2.1938   13.5109 H   0  0  0  0  0  0  0  0  0  0  0  0
   -1.0533   -1.5553   14.2926 H   0  0  0  0  0  0  0  0  0  0  0  0
    0.5708    1.7242   10.5816 H   0  0  0  0  0  0  0  0  0  0  0  0
    2.8081    2.9469   10.8915 H   0  0  0  0  0  0  0  0  0  0  0  0
    5.2032    2.4317   10.8974 H   0  0  0  0  0  0  0  0  0  0  0  0
    6.4002   -2.0537   11.4855 H   0  0  0  0  0  0  0  0  0  0  0  0
    6.3394   -1.2926   13.0951 H   0  0  0  0  0  0  0  0  0  0  0  0
    8.6506   -0.5258   12.9122 H   0  0  0  0  0  0  0  0  0  0  0  0
    8.5808   -2.2549   12.5960 H   0  0  0  0  0  0  0  0  0  0  0  0
    8.6792   -1.8089   10.2647 H   0  0  0  0  0  0  0  0  0  0  0  0
    8.9349    1.0266   11.0004 H   0  0  0  0  0  0  0  0  0  0  0  0
    9.0376    0.3613    9.3760 H   0  0  0  0  0  0  0  0  0  0  0  0
    6.6787   -0.3294    9.4126 H   0  0  0  0  0  0  0  0  0  0  0  0
    6.8273    1.3826    9.8407 H   0  0  0  0  0  0  0  0  0  0  0  0
    4.1663   -1.5601   12.0961 H   0  0  0  0  0  0  0  0  0  0  0  0
   -5.1255    0.5322    9.7327 H   0  0  0  0  0  0  0  0  0  0  0  0
   -4.0054   -0.6590    8.0487 H   0  0  0  0  0  0  0  0  0  0  0  0
   -2.4055   -0.3368    8.7187 H   0  0  0  0  0  0  0  0  0  0  0  0
   -4.1909    1.5841    7.1720 H   0  0  0  0  0  0  0  0  0  0  0  0
   -2.4797    1.2121    6.8812 H   0  0  0  0  0  0  0  0  0  0  0  0
   -1.8088    2.3387    8.9314 H   0  0  0  0  0  0  0  0  0  0  0  0
   -3.0229    3.4338    8.2508 H   0  0  0  0  0  0  0  0  0  0  0  0
   -3.3054    2.5035   10.7917 H   0  0  0  0  0  0  0  0  0  0  0  0
   -4.7012    2.6887    9.7403 H   0  0  0  0  0  0  0  0  0  0  0  0
   -2.1419   -3.0088    2.1197 Ti  0  0  0  0  0  0  0  0  0  0  0  0
    0.2890   -1.6948    1.4324 Ti  0  0  0  0  0  0  0  0  0  0  0  0
    1.9031   -3.0677   -0.7293 Ti  0  0  0  0  0  0  0  0  0  0  0  0
   -2.5215   -0.2519    1.3037 Ti  0  0  0  0  0  0  0  0  0  0  0  0
    2.1420    0.4995    2.2044 Ti  0  0  0  0  0  0  0  0  0  0  0  0
   -0.6814    0.1896    3.6812 Ti  0  0  0  0  0  0  0  0  0  0  0  0
   -2.0368   -3.0777   -1.2005 Ti  0  0  0  0  0  0  0  0  0  0  0  0
   -0.6053   -0.7709   -2.0351 Ti  0  0  0  0  0  0  0  0  0  0  0  0
    1.9455   -1.5873   -3.4124 Ti  0  0  0  0  0  0  0  0  0  0  0  0
   -1.8782    1.7466   -1.2400 Ti  0  0  0  0  0  0  0  0  0  0  0  0
    2.4125    0.4542   -0.7742 Ti  0  0  0  0  0  0  0  0  0  0  0  0
    0.8177    1.8385   -2.9400 Ti  0  0  0  0  0  0  0  0  0  0  0  0
   -3.6784    1.2814    0.6007 C   0  0  0  0  0  0  0  0  0  0  0  0
    4.1282    0.4828    0.3873 C   0  0  0  0  0  0  0  0  0  0  0  0
    0.4555    2.2672    0.3497 C   0  0  0  0  0  0  0  0  0  0  0  0
   -3.6667    2.1188   -0.3139 C   0  0  0  0  0  0  0  0  0  0  0  0
    4.1160    0.6322    1.6214 C   0  0  0  0  0  0  0  0  0  0  0  0
   -0.6352    2.7410   -0.1189 C   0  0  0  0  0  0  0  0  0  0  0  0
    1.6301    1.7810    0.7342 C   0  0  0  0  0  0  0  0  0  0  0  0
   -3.0935   -1.9569    1.0379 O   0  0  0  0  0  0  0  0  0  0  0  0
   -0.4872   -2.6058    2.7012 O   0  0  0  0  0  0  0  0  0  0  0  0
    0.3141   -2.8889    0.1450 O   0  0  0  0  0  0  0  0  0  0  0  0
   -0.8008   -0.4359    0.9712 O   0  0  0  0  0  0  0  0  0  0  0  0
    1.9029   -1.1583    1.4694 O   0  0  0  0  0  0  0  0  0  0  0  0
   -2.3227   -0.1139    3.0248 O   0  0  0  0  0  0  0  0  0  0  0  0
    1.0138    0.4416    3.5688 O   0  0  0  0  0  0  0  0  0  0  0  0
   -1.7720   -4.5879   -1.6528 O   0  0  0  0  0  0  0  0  0  0  0  0
    0.1906   -1.1892   -3.5340 O   0  0  0  0  0  0  0  0  0  0  0  0
    2.8314   -2.1702   -1.9180 O   0  0  0  0  0  0  0  0  0  0  0  0
   -2.0546   -0.2244   -1.3375 O   0  0  0  0  0  0  0  0  0  0  0  0
    0.7685   -0.3906   -1.0637 O   0  0  0  0  0  0  0  0  0  0  0  0
   -0.9000    1.6493   -2.8186 O   0  0  0  0  0  0  0  0  0  0  0  0
    2.4153    1.3575   -2.2641 O   0  0  0  0  0  0  0  0  0  0  0  0
  1  2  1  0  0  0  0
  2  3  1  0  0  0  0
  2  4  4  0  0  0  0
  4  5  2  0  0  0  0
  4  6  1  0  0  0  0
  6  7  2  0  0  0  0
  7  8  4  0  0  0  0
  8  9  4  0  0  0  0
  9 10  4  0  0  0  0
 10 11  4  0  0  0  0
 11 12  1  0  0  0  0
 12 13  1  0  0  0  0
 13 14  4  0  0  0  0
 14 15  4  0  0  0  0
 15 16  4  0  0  0  0
 16 17  1  0  0  0  0
 17 18  1  0  0  0  0
 18 19  1  0  0  0  0
 19 20  1  0  0  0  0
 20 21  1  0  0  0  0
 17 22  1  0  0  0  0
 21 22  1  0  0  0  0
 16 23  4  0  0  0  0
 13 24  4  0  0  0  0
 23 24  4  0  0  0  0
 11 25  4  0  0  0  0
  8 26  4  0  0  0  0
 25 26  4  0  0  0  0
  6 27  1  0  0  0  0
 26 27  1  0  0  0  0
 27 28  1  0  0  0  0
 28 29  1  0  0  0  0
 29 30  1  0  0  0  0
 30 31  1  0  0  0  0
 28 32  1  0  0  0  0
 31 32  1  0  0  0  0
  1 33  1  0  0  0  0
  1 34  1  0  0  0  0
  1 35  1  0  0  0  0
  3 36  1  0  0  0  0
  3 37  1  0  0  0  0
  3 38  1  0  0  0  0
  7 39  1  0  0  0  0
  9 40  1  0  0  0  0
 12 41  1  0  0  0  0
 14 42  1  0  0  0  0
 15 43  1  0  0  0  0
 18 44  1  0  0  0  0
 18 45  1  0  0  0  0
 19 46  1  0  0  0  0
 19 47  1  0  0  0  0
 20 48  1  0  0  0  0
 21 49  1  0  0  0  0
 21 50  1  0  0  0  0
 22 51  1  0  0  0  0
 22 52  1  0  0  0  0
 23 53  1  0  0  0  0
 28 54  1  0  0  0  0
 29 55  1  0  0  0  0
 29 56  1  0  0  0  0
 30 57  1  0  0  0  0
 30 58  1  0  0  0  0
 31 59  1  0  0  0  0
 31 60  1  0  0  0  0
 32 61  1  0  0  0  0
 32 62  1  0  0  0  0
 63 69  1  0  0  0  0
 69 70  1  0  0  0  0
 65 71  1  0  0  0  0
 66 75  1  0  0  0  0
 73 76  1  0  0  0  0
 72 78  1  0  0  0  0
 75 78  3  0  0  0  0
 67 79  1  0  0  0  0
 76 79  3  0  0  0  0
 72 80  1  0  0  0  0
 77 80  2  0  0  0  0
 67 81  1  0  0  0  0
 73 81  1  0  0  0  0
 77 81  2  0  0  0  0
 63 82  1  0  0  0  0
 66 82  1  0  0  0  0
 63 83  1  0  0  0  0
 64 83  1  0  0  0  0
 64 84  1  0  0  0  0
 65 84  1  0  0  0  0
 64 85  1  0  0  0  0
 66 85  1  0  0  0  0
 64 86  1  0  0  0  0
 67 86  1  0  0  0  0
 66 87  1  0  0  0  0
 68 87  1  0  0  0  0
 67 88  1  0  0  0  0
 68 88  1  0  0  0  0
 69 89  2  0  0  0  0
 70 90  1  0  0  0  0
 71 90  1  0  0  0  0
 65 91  1  0  0  0  0
 71 91  1  0  0  0  0
 70 92  1  0  0  0  0
 72 92  1  0  0  0  0
 70 93  1  0  0  0  0
 73 93  1  0  0  0  0
 72 94  1  0  0  0  0
 74 94  1  0  0  0  0
 73 95  1  0  0  0  0
 74 95  1  0  0  0  0
M  END
