 xtb: 6.7.1pre (5071a88)
          08312620403D

 95108  0     0  0            999 V2000
   -7.9390   -1.7520    5.1217 C   0  0  0  0  0  0  0  0  0  0  0  0
   -6.4972   -1.6636    4.9717 N   0  0  0  0  0  0  0  0  0  0  0  0
   -5.9373   -2.3025    3.7893 C   0  0  0  0  0  0  0  0  0  0  0  0
   -5.7908   -0.8116    5.8231 C   0  0  0  0  0  0  0  0  0  0  0  0
   -6.3740   -0.0487    6.5892 O   0  0  0  0  0  0  0  0  0  0  0  0
   -4.3412   -0.8809    5.7853 C   0  0  0  0  0  0  0  0  0  0  0  0
   -3.5576   -2.0241    5.9091 C   0  0  0  0  0  0  0  0  0  0  0  0
   -2.1998   -1.6440    5.8645 C   0  0  0  0  0  0  0  0  0  0  0  0
   -0.9697   -2.2813    5.9294 C   0  0  0  0  0  0  0  0  0  0  0  0
    0.1656   -1.5515    5.8487 N   0  0  0  0  0  0  0  0  0  0  0  0
    0.0889   -0.2119    5.7138 C   0  0  0  0  0  0  0  0  0  0  0  0
    1.2350    0.5601    5.6285 N   0  0  0  0  0  0  0  0  0  0  0  0
    2.5918    0.3054    5.6480 C   0  0  0  0  0  0  0  0  0  0  0  0
    3.1556   -0.9524    5.7840 C   0  0  0  0  0  0  0  0  0  0  0  0
    4.5497   -1.0973    5.7918 C   0  0  0  0  0  0  0  0  0  0  0  0
    5.3984    0.0025    5.6617 C   0  0  0  0  0  0  0  0  0  0  0  0
    6.7762   -0.1189    5.6764 N   0  0  0  0  0  0  0  0  0  0  0  0
    7.4321   -1.3901    5.3251 C   0  0  0  0  0  0  0  0  0  0  0  0
    8.8340   -1.1551    4.7155 C   0  0  0  0  0  0  0  0  0  0  0  0
    9.7628   -0.3619    5.5384 N   0  0  0  0  0  0  0  0  0  0  0  0
    9.0414    0.6288    6.3596 C   0  0  0  0  0  0  0  0  0  0  0  0
    7.6547    1.0533    5.8240 C   0  0  0  0  0  0  0  0  0  0  0  0
    4.7256    1.2187    5.5353 C   0  0  0  0  0  0  0  0  0  0  0  0
    3.3757    1.3949    5.5240 N   0  0  0  0  0  0  0  0  0  0  0  0
   -1.0589    0.4843    5.6472 N   0  0  0  0  0  0  0  0  0  0  0  0
   -2.1673   -0.2704    5.7281 C   0  0  0  0  0  0  0  0  0  0  0  0
   -3.4680    0.1947    5.6938 N   0  0  0  0  0  0  0  0  0  0  0  0
   -3.7916    1.6047    5.5554 C   0  0  0  0  0  0  0  0  0  0  0  0
   -4.7508    1.9774    4.4184 C   0  0  0  0  0  0  0  0  0  0  0  0
   -5.2972    3.3274    4.8588 C   0  0  0  0  0  0  0  0  0  0  0  0
   -5.5068    3.1524    6.3556 C   0  0  0  0  0  0  0  0  0  0  0  0
   -4.3457    2.2752    6.8231 C   0  0  0  0  0  0  0  0  0  0  0  0
   -8.4093   -1.1139    4.3677 H   0  0  0  0  0  0  0  0  0  0  0  0
   -8.2510   -2.7899    4.9718 H   0  0  0  0  0  0  0  0  0  0  0  0
   -8.2637   -1.4293    6.1146 H   0  0  0  0  0  0  0  0  0  0  0  0
   -4.9318   -1.9493    3.5548 H   0  0  0  0  0  0  0  0  0  0  0  0
   -5.9221   -3.3836    3.9535 H   0  0  0  0  0  0  0  0  0  0  0  0
   -6.5765   -2.0778    2.9295 H   0  0  0  0  0  0  0  0  0  0  0  0
   -3.9431   -3.0285    6.0329 H   0  0  0  0  0  0  0  0  0  0  0  0
   -0.8531   -3.3521    6.0421 H   0  0  0  0  0  0  0  0  0  0  0  0
    1.0258    1.5399    5.5268 H   0  0  0  0  0  0  0  0  0  0  0  0
    2.5410   -1.8375    5.8938 H   0  0  0  0  0  0  0  0  0  0  0  0
    4.9493   -2.0976    5.9272 H   0  0  0  0  0  0  0  0  0  0  0  0
    6.8447   -1.9446    4.5832 H   0  0  0  0  0  0  0  0  0  0  0  0
    7.5192   -2.0108    6.2250 H   0  0  0  0  0  0  0  0  0  0  0  0
    9.2997   -2.1209    4.4888 H   0  0  0  0  0  0  0  0  0  0  0  0
    8.7167   -0.6379    3.7548 H   0  0  0  0  0  0  0  0  0  0  0  0
   10.2765   -0.9808    6.1650 H   0  0  0  0  0  0  0  0  0  0  0  0
    8.9067    0.2055    7.3636 H   0  0  0  0  0  0  0  0  0  0  0  0
    9.6767    1.5139    6.4715 H   0  0  0  0  0  0  0  0  0  0  0  0
    7.7614    1.5616    4.8580 H   0  0  0  0  0  0  0  0  0  0  0  0
    7.2327    1.7668    6.5419 H   0  0  0  0  0  0  0  0  0  0  0  0
    5.2701    2.1500    5.4136 H   0  0  0  0  0  0  0  0  0  0  0  0
   -2.8484    2.1190    5.3241 H   0  0  0  0  0  0  0  0  0  0  0  0
   -4.2351    2.0401    3.4546 H   0  0  0  0  0  0  0  0  0  0  0  0
   -5.5732    1.2675    4.3002 H   0  0  0  0  0  0  0  0  0  0  0  0
   -4.5587    4.1156    4.6697 H   0  0  0  0  0  0  0  0  0  0  0  0
   -6.2216    3.5923    4.3378 H   0  0  0  0  0  0  0  0  0  0  0  0
   -6.4585    2.6414    6.5404 H   0  0  0  0  0  0  0  0  0  0  0  0
   -5.5377    4.1104    6.8832 H   0  0  0  0  0  0  0  0  0  0  0  0
   -3.5653    2.8993    7.2759 H   0  0  0  0  0  0  0  0  0  0  0  0
   -4.6660    1.5695    7.5957 H   0  0  0  0  0  0  0  0  0  0  0  0
   -3.0000   -2.6000    1.2500 Ti  0  0  0  0  0  0  0  0  0  0  0  0
    0.0000   -2.6000    1.2500 Ti  0  0  0  0  0  0  0  0  0  0  0  0
    3.0000   -2.6000    1.2500 Ti  0  0  0  0  0  0  0  0  0  0  0  0
   -1.5000    0.0000    1.2500 Ti  0  0  0  0  0  0  0  0  0  0  0  0
    1.5000    0.0000    1.2500 Ti  0  0  0  0  0  0  0  0  0  0  0  0
    0.0000    2.6000    1.2500 Ti  0  0  0  0  0  0  0  0  0  0  0  0
   -3.0000   -2.6000   -1.2500 Ti  0  0  0  0  0  0  0  0  0  0  0  0
    0.0000   -2.6000   -1.2500 Ti  0  0  0  0  0  0  0  0  0  0  0  0
    3.0000   -2.6000   -1.2500 Ti  0  0  0  0  0  0  0  0  0  0  0  0
   -1.5000    0.0000   -1.2500 Ti  0  0  0  0  0  0  0  0  0  0  0  0
    1.5000    0.0000   -1.2500 Ti  0  0  0  0  0  0  0  0  0  0  0  0
    0.0000    2.6000   -1.2500 Ti  0  0  0  0  0  0  0  0  0  0  0  0
   -1.5000   -1.3000    0.0000 C   0  0  0  0  0  0  0  0  0  0  0  0
    1.5000   -1.3000    0.0000 C   0  0  0  0  0  0  0  0  0  0  0  0
    0.0000    1.3000    0.0000 C   0  0  0  0  0  0  0  0  0  0  0  0
   -3.0000    0.0000    0.0000 C   0  0  0  0  0  0  0  0  0  0  0  0
    3.0000    0.0000    0.0000 C   0  0  0  0  0  0  0  0  0  0  0  0
   -1.5000    2.6000    0.0000 C   0  0  0  0  0  0  0  0  0  0  0  0
    1.5000    2.6000    0.0000 C   0  0  0  0  0  0  0  0  0  0  0  0
   -3.0000   -2.6000    2.4500 O   0  0  0  0  0  0  0  0  0  0  0  0
    0.0000   -2.6000    2.4500 O   0  0  0  0  0  0  0  0  0  0  0  0
    3.0000   -2.6000    2.4500 O   0  0  0  0  0  0  0  0  0  0  0  0
   -1.5000    0.0000    2.4500 O   0  0  0  0  0  0  0  0  0  0  0  0
    1.5000    0.0000    2.4500 O   0  0  0  0  0  0  0  0  0  0  0  0
   -1.5000    2.6000    2.4500 O   0  0  0  0  0  0  0  0  0  0  0  0
    1.5000    2.6000    2.4500 O   0  0  0  0  0  0  0  0  0  0  0  0
   -3.0000   -2.6000   -2.4500 O   0  0  0  0  0  0  0  0  0  0  0  0
    0.0000   -2.6000   -2.4500 O   0  0  0  0  0  0  0  0  0  0  0  0
    3.0000   -2.6000   -2.4500 O   0  0  0  0  0  0  0  0  0  0  0  0
   -1.5000    0.0000   -2.4500 O   0  0  0  0  0  0  0  0  0  0  0  0
    1.5000    0.0000   -2.4500 O   0  0  0  0  0  0  0  0  0  0  0  0
   -1.5000    2.6000   -2.4500 O   0  0  0  0  0  0  0  0  0  0  0  0
    1.5000    2.6000   -2.4500 O   0  0  0  0  0  0  0  0  0  0  0  0
  1  2  1  0  0  0  0
  2  3  1  0  0  0  0
  2  4  1  0  0  0  0
  4  5  2  0  0  0  0
  4  6  1  0  0  0  0
  6  7  4  0  0  0  0
  7  8  4  0  0  0  0
  8  9  4  0  0  0  0
  9 10  4  0  0  0  0
 10 11  4  0  0  0  0
 11 12  1  0  0  0  0
 12 13  1  0  0  0  0
 13 14  4  0  0  0  0
 14 15  4  0  0  0  0
 15 16  4  0  0  0  0
 16 17  1  0  0  0  0
 17 18  1  0  0  0  0
 18 19  1  0  0  0  0
 19 20  1  0  0  0  0
 20 21  1  0  0  0  0
 17 22  1  0  0  0  0
 21 22  1  0  0  0  0
 16 23  4  0  0  0  0
 13 24  4  0  0  0  0
 23 24  4  0  0  0  0
 11 25  4  0  0  0  0
  8 26  4  0  0  0  0
 25 26  4  0  0  0  0
  6 27  1  0  0  0  0
 26 27  1  0  0  0  0
 27 28  1  0  0  0  0
 28 29  1  0  0  0  0
 29 30  1  0  0  0  0
 30 31  1  0  0  0  0
 28 32  1  0  0  0  0
 31 32  1  0  0  0  0
  1 33  1  0  0  0  0
  1 34  1  0  0  0  0
  1 35  1  0  0  0  0
  3 36  1  0  0  0  0
  3 37  1  0  0  0  0
  3 38  1  0  0  0  0
  7 39  1  0  0  0  0
  9 40  1  0  0  0  0
 12 41  1  0  0  0  0
 14 42  1  0  0  0  0
 15 43  1  0  0  0  0
 18 44  1  0  0  0  0
 18 45  1  0  0  0  0
 19 46  1  0  0  0  0
 19 47  1  0  0  0  0
 20 48  1  0  0  0  0
 21 49  1  0  0  0  0
 21 50  1  0  0  0  0
 22 51  1  0  0  0  0
 22 52  1  0  0  0  0
 23 53  1  0  0  0  0
 28 54  1  0  0  0  0
 29 55  1  0  0  0  0
 29 56  1  0  0  0  0
 30 57  1  0  0  0  0
 30 58  1  0  0  0  0
 31 59  1  0  0  0  0
 31 60  1  0  0  0  0
 32 61  1  0  0  0  0
 32 62  1  0  0  0  0
 64 65  1  0  0  0  0
 63 69  1  0  0  0  0
 64 70  1  0  0  0  0
 69 70  1  0  0  0  0
 65 71  1  0  0  0  0
 70 71  1  0  0  0  0
 66 75  1  0  0  0  0
 72 75  1  0  0  0  0
 67 76  1  0  0  0  0
 73 76  1  0  0  0  0
 68 77  1  0  0  0  0
 74 77  1  0  0  0  0
 66 78  1  0  0  0  0
 72 78  1  0  0  0  0
 75 78  1  0  0  0  0
 67 79  1  0  0  0  0
 73 79  1  0  0  0  0
 76 79  1  0  0  0  0
 68 80  1  0  0  0  0
 74 80  1  0  0  0  0
 77 80  1  0  0  0  0
 68 81  1  0  0  0  0
 74 81  1  0  0  0  0
 77 81  1  0  0  0  0
 63 82  2  0  0  0  0
 64 83  2  0  0  0  0
 65 84  2  0  0  0  0
 66 85  2  0  0  0  0
 67 86  2  0  0  0  0
 68 87  1  0  0  0  0
 80 87  1  0  0  0  0
 68 88  1  0  0  0  0
 81 88  1  0  0  0  0
 69 89  2  0  0  0  0
 70 90  2  0  0  0  0
 71 91  2  0  0  0  0
 72 92  2  0  0  0  0
 73 93  2  0  0  0  0
 74 94  1  0  0  0  0
 80 94  1  0  0  0  0
 74 95  1  0  0  0  0
 81 95  1  0  0  0  0
M  END
