 xtb: 6.7.1pre (5071a88)
          08312621193D

 95107  0     0  0            999 V2000
   -7.9390   -1.7520    9.3734 C   0  0  0  0  0  0  0  0  0  0  0  0
   -6.4972   -1.6636    9.2235 N   0  0  0  0  0  0  0  0  0  0  0  0
   -5.9373   -2.3025    8.0411 C   0  0  0  0  0  0  0  0  0  0  0  0
   -5.7908   -0.8116   10.0749 C   0  0  0  0  0  0  0  0  0  0  0  0
   -6.3740   -0.0487   10.8409 O   0  0  0  0  0  0  0  0  0  0  0  0
   -4.3412   -0.8809   10.0370 C   0  0  0  0  0  0  0  0  0  0  0  0
   -3.5576   -2.0241   10.1608 C   0  0  0  0  0  0  0  0  0  0  0  0
   -2.1998   -1.6440   10.1163 C   0  0  0  0  0  0  0  0  0  0  0  0
   -0.9697   -2.2813   10.1812 C   0  0  0  0  0  0  0  0  0  0  0  0
    0.1656   -1.5515   10.1004 N   0  0  0  0  0  0  0  0  0  0  0  0
    0.0889   -0.2119    9.9656 C   0  0  0  0  0  0  0  0  0  0  0  0
    1.2350    0.5601    9.8803 N   0  0  0  0  0  0  0  0  0  0  0  0
    2.5918    0.3054    9.8998 C   0  0  0  0  0  0  0  0  0  0  0  0
    3.1556   -0.9524   10.0358 C   0  0  0  0  0  0  0  0  0  0  0  0
    4.5497   -1.0973   10.0436 C   0  0  0  0  0  0  0  0  0  0  0  0
    5.3984    0.0025    9.9135 C   0  0  0  0  0  0  0  0  0  0  0  0
    6.7762   -0.1189    9.9282 N   0  0  0  0  0  0  0  0  0  0  0  0
    7.4321   -1.3901    9.5769 C   0  0  0  0  0  0  0  0  0  0  0  0
    8.8340   -1.1551    8.9673 C   0  0  0  0  0  0  0  0  0  0  0  0
    9.7628   -0.3619    9.7902 N   0  0  0  0  0  0  0  0  0  0  0  0
    9.0414    0.6288   10.6114 C   0  0  0  0  0  0  0  0  0  0  0  0
    7.6547    1.0533   10.0758 C   0  0  0  0  0  0  0  0  0  0  0  0
    4.7256    1.2187    9.7871 C   0  0  0  0  0  0  0  0  0  0  0  0
    3.3757    1.3949    9.7757 N   0  0  0  0  0  0  0  0  0  0  0  0
   -1.0589    0.4843    9.8990 N   0  0  0  0  0  0  0  0  0  0  0  0
   -2.1673   -0.2704    9.9799 C   0  0  0  0  0  0  0  0  0  0  0  0
   -3.4680    0.1947    9.9456 N   0  0  0  0  0  0  0  0  0  0  0  0
   -3.7916    1.6047    9.8072 C   0  0  0  0  0  0  0  0  0  0  0  0
   -4.7508    1.9774    8.6702 C   0  0  0  0  0  0  0  0  0  0  0  0
   -5.2972    3.3274    9.1106 C   0  0  0  0  0  0  0  0  0  0  0  0
   -5.5068    3.1524   10.6074 C   0  0  0  0  0  0  0  0  0  0  0  0
   -4.3457    2.2752   11.0749 C   0  0  0  0  0  0  0  0  0  0  0  0
   -8.4093   -1.1139    8.6195 H   0  0  0  0  0  0  0  0  0  0  0  0
   -8.2510   -2.7899    9.2236 H   0  0  0  0  0  0  0  0  0  0  0  0
   -8.2637   -1.4293   10.3664 H   0  0  0  0  0  0  0  0  0  0  0  0
   -4.9318   -1.9493    7.8065 H   0  0  0  0  0  0  0  0  0  0  0  0
   -5.9221   -3.3836    8.2053 H   0  0  0  0  0  0  0  0  0  0  0  0
   -6.5765   -2.0778    7.1812 H   0  0  0  0  0  0  0  0  0  0  0  0
   -3.9431   -3.0285   10.2847 H   0  0  0  0  0  0  0  0  0  0  0  0
   -0.8531   -3.3521   10.2939 H   0  0  0  0  0  0  0  0  0  0  0  0
    1.0258    1.5399    9.7786 H   0  0  0  0  0  0  0  0  0  0  0  0
    2.5410   -1.8375   10.1456 H   0  0  0  0  0  0  0  0  0  0  0  0
    4.9493   -2.0976   10.1790 H   0  0  0  0  0  0  0  0  0  0  0  0
    6.8447   -1.9446    8.8350 H   0  0  0  0  0  0  0  0  0  0  0  0
    7.5192   -2.0108   10.4767 H   0  0  0  0  0  0  0  0  0  0  0  0
    9.2997   -2.1209    8.7406 H   0  0  0  0  0  0  0  0  0  0  0  0
    8.7167   -0.6379    8.0066 H   0  0  0  0  0  0  0  0  0  0  0  0
   10.2765   -0.9808   10.4168 H   0  0  0  0  0  0  0  0  0  0  0  0
    8.9067    0.2055   11.6154 H   0  0  0  0  0  0  0  0  0  0  0  0
    9.6767    1.5139   10.7233 H   0  0  0  0  0  0  0  0  0  0  0  0
    7.7614    1.5616    9.1098 H   0  0  0  0  0  0  0  0  0  0  0  0
    7.2327    1.7668   10.7937 H   0  0  0  0  0  0  0  0  0  0  0  0
    5.2701    2.1500    9.6654 H   0  0  0  0  0  0  0  0  0  0  0  0
   -2.8484    2.1190    9.5758 H   0  0  0  0  0  0  0  0  0  0  0  0
   -4.2351    2.0401    7.7063 H   0  0  0  0  0  0  0  0  0  0  0  0
   -5.5732    1.2675    8.5519 H   0  0  0  0  0  0  0  0  0  0  0  0
   -4.5587    4.1156    8.9215 H   0  0  0  0  0  0  0  0  0  0  0  0
   -6.2216    3.5923    8.5896 H   0  0  0  0  0  0  0  0  0  0  0  0
   -6.4585    2.6414   10.7921 H   0  0  0  0  0  0  0  0  0  0  0  0
   -5.5377    4.1104   11.1350 H   0  0  0  0  0  0  0  0  0  0  0  0
   -3.5653    2.8993   11.5277 H   0  0  0  0  0  0  0  0  0  0  0  0
   -4.6660    1.5695   11.8474 H   0  0  0  0  0  0  0  0  0  0  0  0
   -2.1419   -3.0088    2.1197 Ti  0  0  0  0  0  0  0  0  0  0  0  0
    0.2890   -1.6948    1.4324 Ti  0  0  0  0  0  0  0  0  0  0  0  0
    1.9031   -3.0677   -0.7293 Ti  0  0  0  0  0  0  0  0  0  0  0  0
   -2.5215   -0.2519    1.3037 Ti  0  0  0  0  0  0  0  0  0  0  0  0
    2.1420    0.4995    2.2044 Ti  0  0  0  0  0  0  0  0  0  0  0  0
   -0.6814    0.1896    3.6812 Ti  0  0  0  0  0  0  0  0  0  0  0  0
   -2.0368   -3.0777   -1.2005 Ti  0  0  0  0  0  0  0  0  0  0  0  0
   -0.6053   -0.7709   -2.0351 Ti  0  0  0  0  0  0  0  0  0  0  0  0
    1.9455   -1.5873   -3.4124 Ti  0  0  0  0  0  0  0  0  0  0  0  0
   -1.8782    1.7466   -1.2400 Ti  0  0  0  0  0  0  0  0  0  0  0  0
    2.4125    0.4542   -0.7742 Ti  0  0  0  0  0  0  0  0  0  0  0  0
    0.8177    1.8385   -2.9400 Ti  0  0  0  0  0  0  0  0  0  0  0  0
   -3.6784    1.2814    0.6007 C   0  0  0  0  0  0  0  0  0  0  0  0
    4.1282    0.4828    0.3873 C   0  0  0  0  0  0  0  0  0  0  0  0
    0.4555    2.2672    0.3497 C   0  0  0  0  0  0  0  0  0  0  0  0
   -3.6667    2.1188   -0.3139 C   0  0  0  0  0  0  0  0  0  0  0  0
    4.1160    0.6322    1.6214 C   0  0  0  0  0  0  0  0  0  0  0  0
   -0.6352    2.7410   -0.1189 C   0  0  0  0  0  0  0  0  0  0  0  0
    1.6301    1.7810    0.7342 C   0  0  0  0  0  0  0  0  0  0  0  0
   -3.0935   -1.9569    1.0379 O   0  0  0  0  0  0  0  0  0  0  0  0
   -0.4872   -2.6058    2.7012 O   0  0  0  0  0  0  0  0  0  0  0  0
    0.3141   -2.8889    0.1450 O   0  0  0  0  0  0  0  0  0  0  0  0
   -0.8008   -0.4359    0.9712 O   0  0  0  0  0  0  0  0  0  0  0  0
    1.9029   -1.1583    1.4694 O   0  0  0  0  0  0  0  0  0  0  0  0
   -2.3227   -0.1139    3.0248 O   0  0  0  0  0  0  0  0  0  0  0  0
    1.0138    0.4416    3.5688 O   0  0  0  0  0  0  0  0  0  0  0  0
   -1.7720   -4.5879   -1.6528 O   0  0  0  0  0  0  0  0  0  0  0  0
    0.1906   -1.1892   -3.5340 O   0  0  0  0  0  0  0  0  0  0  0  0
    2.8314   -2.1702   -1.9180 O   0  0  0  0  0  0  0  0  0  0  0  0
   -2.0546   -0.2244   -1.3375 O   0  0  0  0  0  0  0  0  0  0  0  0
    0.7685   -0.3906   -1.0637 O   0  0  0  0  0  0  0  0  0  0  0  0
   -0.9000    1.6493   -2.8186 O   0  0  0  0  0  0  0  0  0  0  0  0
    2.4153    1.3575   -2.2641 O   0  0  0  0  0  0  0  0  0  0  0  0
  1  2  1  0  0  0  0
  2  3  1  0  0  0  0
  2  4  4  0  0  0  0
  4  5  2  0  0  0  0
  4  6  1  0  0  0  0
  6  7  2  0  0  0  0
  7  8  4  0  0  0  0
  8  9  4  0  0  0  0
  9 10  4  0  0  0  0
 10 11  4  0  0  0  0
 11 12  1  0  0  0  0
 12 13  1  0  0  0  0
 13 14  4  0  0  0  0
 14 15  4  0  0  0  0
 15 16  4  0  0  0  0
 16 17  1  0  0  0  0
 17 18  1  0  0  0  0
 18 19  1  0  0  0  0
 19 20  1  0  0  0  0
 20 21  1  0  0  0  0
 17 22  1  0  0  0  0
 21 22  1  0  0  0  0
 16 23  4  0  0  0  0
 13 24  4  0  0  0  0
 23 24  4  0  0  0  0
 11 25  4  0  0  0  0
  8 26  4  0  0  0  0
 25 26  4  0  0  0  0
  6 27  1  0  0  0  0
 26 27  1  0  0  0  0
 27 28  1  0  0  0  0
 28 29  1  0  0  0  0
 29 30  1  0  0  0  0
 30 31  1  0  0  0  0
 28 32  1  0  0  0  0
 31 32  1  0  0  0  0
  1 33  1  0  0  0  0
  1 34  1  0  0  0  0
  1 35  1  0  0  0  0
  3 36  1  0  0  0  0
  3 37  1  0  0  0  0
  3 38  1  0  0  0  0
  7 39  1  0  0  0  0
  9 40  1  0  0  0  0
 12 41  1  0  0  0  0
 14 42  1  0  0  0  0
 15 43  1  0  0  0  0
 18 44  1  0  0  0  0
 18 45  1  0  0  0  0
 19 46  1  0  0  0  0
 19 47  1  0  0  0  0
 20 48  1  0  0  0  0
 21 49  1  0  0  0  0
 21 50  1  0  0  0  0
 22 51  1  0  0  0  0
 22 52  1  0  0  0  0
 23 53  1  0  0  0  0
 28 54  1  0  0  0  0
 29 55  1  0  0  0  0
 29 56  1  0  0  0  0
 30 57  1  0  0  0  0
 30 58  1  0  0  0  0
 31 59  1  0  0  0  0
 31 60  1  0  0  0  0
 32 61  1  0  0  0  0
 32 62  1  0  0  0  0
 63 69  1  0  0  0  0
 69 70  1  0  0  0  0
 65 71  1  0  0  0  0
 66 75  1  0  0  0  0
 73 76  1  0  0  0  0
 72 78  1  0  0  0  0
 75 78  3  0  0  0  0
 67 79  1  0  0  0  0
 76 79  3  0  0  0  0
 72 80  1  0  0  0  0
 77 80  2  0  0  0  0
 67 81  1  0  0  0  0
 73 81  1  0  0  0  0
 77 81  2  0  0  0  0
 63 82  1  0  0  0  0
 66 82  1  0  0  0  0
 63 83  1  0  0  0  0
 64 83  1  0  0  0  0
 64 84  1  0  0  0  0
 65 84  1  0  0  0  0
 64 85  1  0  0  0  0
 66 85  1  0  0  0  0
 64 86  1  0  0  0  0
 67 86  1  0  0  0  0
 66 87  1  0  0  0  0
 68 87  1  0  0  0  0
 67 88  1  0  0  0  0
 68 88  1  0  0  0  0
 69 89  2  0  0  0  0
 70 90  1  0  0  0  0
 71 90  1  0  0  0  0
 65 91  1  0  0  0  0
 71 91  1  0  0  0  0
 70 92  1  0  0  0  0
 72 92  1  0  0  0  0
 70 93  1  0  0  0  0
 73 93  1  0  0  0  0
 72 94  1  0  0  0  0
 74 94  1  0  0  0  0
 73 95  1  0  0  0  0
 74 95  1  0  0  0  0
M  END
