 xtb: 6.7.1pre (5071a88)
          08312622013D

 72 80  0     0  0            999 V2000
    5.3144   -1.2606   11.2289 O   0  0  0  0  0  0  0  0  0  0  0  0
    4.9764   -0.1027   10.9985 C   0  0  0  0  0  0  0  0  0  0  0  0
    4.1193    0.3337    9.8280 C   0  0  0  0  0  0  0  0  0  0  0  0
    3.6918   -0.8449    8.9557 C   0  0  0  0  0  0  0  0  0  0  0  0
    2.9633   -0.4242    7.6761 C   0  0  0  0  0  0  0  0  0  0  0  0
    1.6804    0.3891    7.8734 C   0  0  0  0  0  0  0  0  0  0  0  0
    0.6101   -0.3474    8.6804 C   0  0  0  0  0  0  0  0  0  0  0  0
   -0.6939    0.4491    8.7284 C   0  0  0  0  0  0  0  0  0  0  0  0
   -1.7754   -0.2512    9.5395 C   0  0  0  0  0  0  0  0  0  0  0  0
   -1.5781   -1.3225   10.0996 O   0  0  0  0  0  0  0  0  0  0  0  0
   -2.9520    0.4817    9.5448 N   0  0  0  0  0  0  0  0  0  0  0  0
   -4.1646    0.1583   10.1885 C   0  0  0  0  0  0  0  0  0  0  0  0
   -5.2255    1.0630   10.0443 C   0  0  0  0  0  0  0  0  0  0  0  0
   -6.4609    0.8181   10.6501 C   0  0  0  0  0  0  0  0  0  0  0  0
   -6.6477   -0.3348   11.4069 C   0  0  0  0  0  0  0  0  0  0  0  0
   -5.5998   -1.2398   11.5562 C   0  0  0  0  0  0  0  0  0  0  0  0
   -4.3632   -0.9945   10.9497 C   0  0  0  0  0  0  0  0  0  0  0  0
    5.3556    0.9424   11.8135 N   0  0  0  0  0  0  0  0  0  0  0  0
    6.2710    0.5929   12.8369 O   0  0  0  0  0  0  0  0  0  0  0  0
    3.2403    0.8494   10.2297 H   0  0  0  0  0  0  0  0  0  0  0  0
    4.6976    1.0489    9.2315 H   0  0  0  0  0  0  0  0  0  0  0  0
    4.5797   -1.4211    8.6649 H   0  0  0  0  0  0  0  0  0  0  0  0
    3.0677   -1.5324    9.5388 H   0  0  0  0  0  0  0  0  0  0  0  0
    3.6513    0.1624    7.0544 H   0  0  0  0  0  0  0  0  0  0  0  0
    2.7251   -1.3276    7.1009 H   0  0  0  0  0  0  0  0  0  0  0  0
    1.2782    0.6303    6.8812 H   0  0  0  0  0  0  0  0  0  0  0  0
    1.9124    1.3477    8.3514 H   0  0  0  0  0  0  0  0  0  0  0  0
    0.4229   -1.3324    8.2354 H   0  0  0  0  0  0  0  0  0  0  0  0
    0.9640   -0.5219    9.7031 H   0  0  0  0  0  0  0  0  0  0  0  0
   -0.5115    1.4320    9.1791 H   0  0  0  0  0  0  0  0  0  0  0  0
   -1.0726    0.6015    7.7107 H   0  0  0  0  0  0  0  0  0  0  0  0
   -2.9480    1.3500    9.0256 H   0  0  0  0  0  0  0  0  0  0  0  0
   -5.1081    1.9711    9.4592 H   0  0  0  0  0  0  0  0  0  0  0  0
   -7.2758    1.5272   10.5307 H   0  0  0  0  0  0  0  0  0  0  0  0
   -7.6066   -0.5296   11.8800 H   0  0  0  0  0  0  0  0  0  0  0  0
   -5.7390   -2.1424   12.1462 H   0  0  0  0  0  0  0  0  0  0  0  0
   -3.5758   -1.7275   11.0937 H   0  0  0  0  0  0  0  0  0  0  0  0
    5.4292    1.8905   11.4608 H   0  0  0  0  0  0  0  0  0  0  0  0
    6.3478   -0.3814   12.7267 H   0  0  0  0  0  0  0  0  0  0  0  0
   -2.1419   -3.0088    2.1197 Ti  0  0  0  0  0  0  0  0  0  0  0  0
    0.2890   -1.6948    1.4324 Ti  0  0  0  0  0  0  0  0  0  0  0  0
    1.9031   -3.0677   -0.7293 Ti  0  0  0  0  0  0  0  0  0  0  0  0
   -2.5215   -0.2519    1.3037 Ti  0  0  0  0  0  0  0  0  0  0  0  0
    2.1420    0.4995    2.2044 Ti  0  0  0  0  0  0  0  0  0  0  0  0
   -0.6814    0.1896    3.6812 Ti  0  0  0  0  0  0  0  0  0  0  0  0
   -2.0368   -3.0777   -1.2005 Ti  0  0  0  0  0  0  0  0  0  0  0  0
   -0.6053   -0.7709   -2.0351 Ti  0  0  0  0  0  0  0  0  0  0  0  0
    1.9455   -1.5873   -3.4124 Ti  0  0  0  0  0  0  0  0  0  0  0  0
   -1.8782    1.7466   -1.2400 Ti  0  0  0  0  0  0  0  0  0  0  0  0
    2.4125    0.4542   -0.7742 Ti  0  0  0  0  0  0  0  0  0  0  0  0
    0.8177    1.8385   -2.9400 Ti  0  0  0  0  0  0  0  0  0  0  0  0
   -3.6784    1.2814    0.6007 C   0  0  0  0  0  0  0  0  0  0  0  0
    4.1282    0.4828    0.3873 C   0  0  0  0  0  0  0  0  0  0  0  0
    0.4555    2.2672    0.3497 C   0  0  0  0  0  0  0  0  0  0  0  0
   -3.6667    2.1188   -0.3139 C   0  0  0  0  0  0  0  0  0  0  0  0
    4.1160    0.6322    1.6214 C   0  0  0  0  0  0  0  0  0  0  0  0
   -0.6352    2.7410   -0.1189 C   0  0  0  0  0  0  0  0  0  0  0  0
    1.6301    1.7810    0.7342 C   0  0  0  0  0  0  0  0  0  0  0  0
   -3.0935   -1.9569    1.0379 O   0  0  0  0  0  0  0  0  0  0  0  0
   -0.4872   -2.6058    2.7012 O   0  0  0  0  0  0  0  0  0  0  0  0
    0.3141   -2.8889    0.1450 O   0  0  0  0  0  0  0  0  0  0  0  0
   -0.8008   -0.4359    0.9712 O   0  0  0  0  0  0  0  0  0  0  0  0
    1.9029   -1.1583    1.4694 O   0  0  0  0  0  0  0  0  0  0  0  0
   -2.3227   -0.1139    3.0248 O   0  0  0  0  0  0  0  0  0  0  0  0
    1.0138    0.4416    3.5688 O   0  0  0  0  0  0  0  0  0  0  0  0
   -1.7720   -4.5879   -1.6528 O   0  0  0  0  0  0  0  0  0  0  0  0
    0.1906   -1.1892   -3.5340 O   0  0  0  0  0  0  0  0  0  0  0  0
    2.8314   -2.1702   -1.9180 O   0  0  0  0  0  0  0  0  0  0  0  0
   -2.0546   -0.2244   -1.3375 O   0  0  0  0  0  0  0  0  0  0  0  0
    0.7685   -0.3906   -1.0637 O   0  0  0  0  0  0  0  0  0  0  0  0
   -0.9000    1.6493   -2.8186 O   0  0  0  0  0  0  0  0  0  0  0  0
    2.4153    1.3575   -2.2641 O   0  0  0  0  0  0  0  0  0  0  0  0
  1  2  2  0  0  0  0
  2  3  1  0  0  0  0
  3  4  1  0  0  0  0
  4  5  1  0  0  0  0
  5  6  1  0  0  0  0
  6  7  1  0  0  0  0
  7  8  1  0  0  0  0
  8  9  1  0  0  0  0
  9 10  2  0  0  0  0
  9 11  1  0  0  0  0
 11 12  1  0  0  0  0
 12 13  4  0  0  0  0
 13 14  4  0  0  0  0
 14 15  4  0  0  0  0
 15 16  4  0  0  0  0
 12 17  4  0  0  0  0
 16 17  4  0  0  0  0
  2 18  4  0  0  0  0
 18 19  1  0  0  0  0
  3 20  1  0  0  0  0
  3 21  1  0  0  0  0
  4 22  1  0  0  0  0
  4 23  1  0  0  0  0
  5 24  1  0  0  0  0
  5 25  1  0  0  0  0
  6 26  1  0  0  0  0
  6 27  1  0  0  0  0
  7 28  1  0  0  0  0
  7 29  1  0  0  0  0
  8 30  1  0  0  0  0
  8 31  1  0  0  0  0
 11 32  1  0  0  0  0
 13 33  1  0  0  0  0
 14 34  1  0  0  0  0
 15 35  1  0  0  0  0
 16 36  1  0  0  0  0
 17 37  1  0  0  0  0
 18 38  1  0  0  0  0
 19 39  1  0  0  0  0
 40 46  1  0  0  0  0
 46 47  1  0  0  0  0
 42 48  1  0  0  0  0
 43 52  1  0  0  0  0
 50 53  1  0  0  0  0
 49 55  1  0  0  0  0
 52 55  3  0  0  0  0
 44 56  1  0  0  0  0
 53 56  3  0  0  0  0
 49 57  1  0  0  0  0
 54 57  2  0  0  0  0
 44 58  1  0  0  0  0
 50 58  1  0  0  0  0
 54 58  2  0  0  0  0
 40 59  1  0  0  0  0
 43 59  1  0  0  0  0
 40 60  1  0  0  0  0
 41 60  1  0  0  0  0
 41 61  1  0  0  0  0
 42 61  1  0  0  0  0
 41 62  1  0  0  0  0
 43 62  1  0  0  0  0
 41 63  1  0  0  0  0
 44 63  1  0  0  0  0
 43 64  1  0  0  0  0
 45 64  1  0  0  0  0
 44 65  1  0  0  0  0
 45 65  1  0  0  0  0
 46 66  2  0  0  0  0
 47 67  1  0  0  0  0
 48 67  1  0  0  0  0
 42 68  1  0  0  0  0
 48 68  1  0  0  0  0
 47 69  1  0  0  0  0
 49 69  1  0  0  0  0
 47 70  1  0  0  0  0
 50 70  1  0  0  0  0
 49 71  1  0  0  0  0
 51 71  1  0  0  0  0
 50 72  1  0  0  0  0
 51 72  1  0  0  0  0
M  END
