 xtb: 6.7.1pre (5071a88)
          08312621193D

 72 80  0     0  0            999 V2000
    6.3652    0.6500   10.8312 O   0  0  0  0  0  0  0  0  0  0  0  0
    5.7930   -0.2122   10.1700 C   0  0  0  0  0  0  0  0  0  0  0  0
    4.3331   -0.1673    9.7676 C   0  0  0  0  0  0  0  0  0  0  0  0
    3.6335    1.0892   10.2834 C   0  0  0  0  0  0  0  0  0  0  0  0
    2.1240    1.0982   10.0227 C   0  0  0  0  0  0  0  0  0  0  0  0
    1.7664    1.0951    8.5344 C   0  0  0  0  0  0  0  0  0  0  0  0
    0.2812    1.3575    8.2671 C   0  0  0  0  0  0  0  0  0  0  0  0
   -0.6408    0.2791    8.8359 C   0  0  0  0  0  0  0  0  0  0  0  0
   -2.0961    0.4897    8.4377 C   0  0  0  0  0  0  0  0  0  0  0  0
   -2.4508    1.4300    7.7373 O   0  0  0  0  0  0  0  0  0  0  0  0
   -2.9089   -0.5008    8.9670 N   0  0  0  0  0  0  0  0  0  0  0  0
   -4.3040   -0.6421    8.8151 C   0  0  0  0  0  0  0  0  0  0  0  0
   -5.1028    0.2299    8.0737 C   0  0  0  0  0  0  0  0  0  0  0  0
   -6.4818    0.0168    7.9735 C   0  0  0  0  0  0  0  0  0  0  0  0
   -7.0736   -1.0694    8.6133 C   0  0  0  0  0  0  0  0  0  0  0  0
   -6.2867   -1.9454    9.3551 C   0  0  0  0  0  0  0  0  0  0  0  0
   -4.9091   -1.7325    9.4552 C   0  0  0  0  0  0  0  0  0  0  0  0
    6.4451   -1.3424    9.7255 N   0  0  0  0  0  0  0  0  0  0  0  0
    7.8414   -1.3521    9.9662 O   0  0  0  0  0  0  0  0  0  0  0  0
    3.8414   -1.0610   10.1689 H   0  0  0  0  0  0  0  0  0  0  0  0
    4.2854   -0.2076    8.6739 H   0  0  0  0  0  0  0  0  0  0  0  0
    4.0914    1.9784    9.8324 H   0  0  0  0  0  0  0  0  0  0  0  0
    3.7941    1.1765   11.3656 H   0  0  0  0  0  0  0  0  0  0  0  0
    1.7013    1.9939   10.4940 H   0  0  0  0  0  0  0  0  0  0  0  0
    1.6706    0.2329   10.5197 H   0  0  0  0  0  0  0  0  0  0  0  0
    2.3479    1.8712    8.0217 H   0  0  0  0  0  0  0  0  0  0  0  0
    2.0469    0.1367    8.0826 H   0  0  0  0  0  0  0  0  0  0  0  0
    0.0002    2.3365    8.6749 H   0  0  0  0  0  0  0  0  0  0  0  0
    0.1362    1.4233    7.1812 H   0  0  0  0  0  0  0  0  0  0  0  0
   -0.5902    0.2775    9.9305 H   0  0  0  0  0  0  0  0  0  0  0  0
   -0.3270   -0.7065    8.4724 H   0  0  0  0  0  0  0  0  0  0  0  0
   -2.4551   -1.2059    9.5331 H   0  0  0  0  0  0  0  0  0  0  0  0
   -4.6857    1.0893    7.5586 H   0  0  0  0  0  0  0  0  0  0  0  0
   -7.0909    0.7051    7.3927 H   0  0  0  0  0  0  0  0  0  0  0  0
   -8.1453   -1.2308    8.5328 H   0  0  0  0  0  0  0  0  0  0  0  0
   -6.7442   -2.7944    9.8564 H   0  0  0  0  0  0  0  0  0  0  0  0
   -4.3196   -2.4323   10.0412 H   0  0  0  0  0  0  0  0  0  0  0  0
    6.1388   -1.8370    8.8943 H   0  0  0  0  0  0  0  0  0  0  0  0
    7.9753   -0.5172   10.4683 H   0  0  0  0  0  0  0  0  0  0  0  0
   -2.1419   -3.0088    2.1197 Ti  0  0  0  0  0  0  0  0  0  0  0  0
    0.2890   -1.6948    1.4324 Ti  0  0  0  0  0  0  0  0  0  0  0  0
    1.9031   -3.0677   -0.7293 Ti  0  0  0  0  0  0  0  0  0  0  0  0
   -2.5215   -0.2519    1.3037 Ti  0  0  0  0  0  0  0  0  0  0  0  0
    2.1420    0.4995    2.2044 Ti  0  0  0  0  0  0  0  0  0  0  0  0
   -0.6814    0.1896    3.6812 Ti  0  0  0  0  0  0  0  0  0  0  0  0
   -2.0368   -3.0777   -1.2005 Ti  0  0  0  0  0  0  0  0  0  0  0  0
   -0.6053   -0.7709   -2.0351 Ti  0  0  0  0  0  0  0  0  0  0  0  0
    1.9455   -1.5873   -3.4124 Ti  0  0  0  0  0  0  0  0  0  0  0  0
   -1.8782    1.7466   -1.2400 Ti  0  0  0  0  0  0  0  0  0  0  0  0
    2.4125    0.4542   -0.7742 Ti  0  0  0  0  0  0  0  0  0  0  0  0
    0.8177    1.8385   -2.9400 Ti  0  0  0  0  0  0  0  0  0  0  0  0
   -3.6784    1.2814    0.6007 C   0  0  0  0  0  0  0  0  0  0  0  0
    4.1282    0.4828    0.3873 C   0  0  0  0  0  0  0  0  0  0  0  0
    0.4555    2.2672    0.3497 C   0  0  0  0  0  0  0  0  0  0  0  0
   -3.6667    2.1188   -0.3139 C   0  0  0  0  0  0  0  0  0  0  0  0
    4.1160    0.6322    1.6214 C   0  0  0  0  0  0  0  0  0  0  0  0
   -0.6352    2.7410   -0.1189 C   0  0  0  0  0  0  0  0  0  0  0  0
    1.6301    1.7810    0.7342 C   0  0  0  0  0  0  0  0  0  0  0  0
   -3.0935   -1.9569    1.0379 O   0  0  0  0  0  0  0  0  0  0  0  0
   -0.4872   -2.6058    2.7012 O   0  0  0  0  0  0  0  0  0  0  0  0
    0.3141   -2.8889    0.1450 O   0  0  0  0  0  0  0  0  0  0  0  0
   -0.8008   -0.4359    0.9712 O   0  0  0  0  0  0  0  0  0  0  0  0
    1.9029   -1.1583    1.4694 O   0  0  0  0  0  0  0  0  0  0  0  0
   -2.3227   -0.1139    3.0248 O   0  0  0  0  0  0  0  0  0  0  0  0
    1.0138    0.4416    3.5688 O   0  0  0  0  0  0  0  0  0  0  0  0
   -1.7720   -4.5879   -1.6528 O   0  0  0  0  0  0  0  0  0  0  0  0
    0.1906   -1.1892   -3.5340 O   0  0  0  0  0  0  0  0  0  0  0  0
    2.8314   -2.1702   -1.9180 O   0  0  0  0  0  0  0  0  0  0  0  0
   -2.0546   -0.2244   -1.3375 O   0  0  0  0  0  0  0  0  0  0  0  0
    0.7685   -0.3906   -1.0637 O   0  0  0  0  0  0  0  0  0  0  0  0
   -0.9000    1.6493   -2.8186 O   0  0  0  0  0  0  0  0  0  0  0  0
    2.4153    1.3575   -2.2641 O   0  0  0  0  0  0  0  0  0  0  0  0
  1  2  2  0  0  0  0
  2  3  1  0  0  0  0
  3  4  1  0  0  0  0
  4  5  1  0  0  0  0
  5  6  1  0  0  0  0
  6  7  1  0  0  0  0
  7  8  1  0  0  0  0
  8  9  1  0  0  0  0
  9 10  2  0  0  0  0
  9 11  1  0  0  0  0
 11 12  1  0  0  0  0
 12 13  4  0  0  0  0
 13 14  4  0  0  0  0
 14 15  4  0  0  0  0
 15 16  4  0  0  0  0
 12 17  4  0  0  0  0
 16 17  4  0  0  0  0
  2 18  4  0  0  0  0
 18 19  1  0  0  0  0
  3 20  1  0  0  0  0
  3 21  1  0  0  0  0
  4 22  1  0  0  0  0
  4 23  1  0  0  0  0
  5 24  1  0  0  0  0
  5 25  1  0  0  0  0
  6 26  1  0  0  0  0
  6 27  1  0  0  0  0
  7 28  1  0  0  0  0
  7 29  1  0  0  0  0
  8 30  1  0  0  0  0
  8 31  1  0  0  0  0
 11 32  1  0  0  0  0
 13 33  1  0  0  0  0
 14 34  1  0  0  0  0
 15 35  1  0  0  0  0
 16 36  1  0  0  0  0
 17 37  1  0  0  0  0
 18 38  1  0  0  0  0
 19 39  1  0  0  0  0
 40 46  1  0  0  0  0
 46 47  1  0  0  0  0
 42 48  1  0  0  0  0
 43 52  1  0  0  0  0
 50 53  1  0  0  0  0
 49 55  1  0  0  0  0
 52 55  3  0  0  0  0
 44 56  1  0  0  0  0
 53 56  3  0  0  0  0
 49 57  1  0  0  0  0
 54 57  2  0  0  0  0
 44 58  1  0  0  0  0
 50 58  1  0  0  0  0
 54 58  2  0  0  0  0
 40 59  1  0  0  0  0
 43 59  1  0  0  0  0
 40 60  1  0  0  0  0
 41 60  1  0  0  0  0
 41 61  1  0  0  0  0
 42 61  1  0  0  0  0
 41 62  1  0  0  0  0
 43 62  1  0  0  0  0
 41 63  1  0  0  0  0
 44 63  1  0  0  0  0
 43 64  1  0  0  0  0
 45 64  1  0  0  0  0
 44 65  1  0  0  0  0
 45 65  1  0  0  0  0
 46 66  2  0  0  0  0
 47 67  1  0  0  0  0
 48 67  1  0  0  0  0
 42 68  1  0  0  0  0
 48 68  1  0  0  0  0
 47 69  1  0  0  0  0
 49 69  1  0  0  0  0
 47 70  1  0  0  0  0
 50 70  1  0  0  0  0
 49 71  1  0  0  0  0
 51 71  1  0  0  0  0
 50 72  1  0  0  0  0
 51 72  1  0  0  0  0
M  END
