 xtb: 6.7.1pre (5071a88)
          08312620523D

 72 82  0     0  0            999 V2000
    6.3652    0.6500    7.2210 O   0  0  0  0  0  0  0  0  0  0  0  0
    5.7930   -0.2122    6.5598 C   0  0  0  0  0  0  0  0  0  0  0  0
    4.3331   -0.1673    6.1575 C   0  0  0  0  0  0  0  0  0  0  0  0
    3.6335    1.0892    6.6732 C   0  0  0  0  0  0  0  0  0  0  0  0
    2.1240    1.0982    6.4125 C   0  0  0  0  0  0  0  0  0  0  0  0
    1.7664    1.0951    4.9242 C   0  0  0  0  0  0  0  0  0  0  0  0
    0.2812    1.3575    4.6569 C   0  0  0  0  0  0  0  0  0  0  0  0
   -0.6408    0.2791    5.2257 C   0  0  0  0  0  0  0  0  0  0  0  0
   -2.0961    0.4897    4.8275 C   0  0  0  0  0  0  0  0  0  0  0  0
   -2.4508    1.4300    4.1271 O   0  0  0  0  0  0  0  0  0  0  0  0
   -2.9089   -0.5008    5.3568 N   0  0  0  0  0  0  0  0  0  0  0  0
   -4.3040   -0.6421    5.2049 C   0  0  0  0  0  0  0  0  0  0  0  0
   -5.1028    0.2299    4.4636 C   0  0  0  0  0  0  0  0  0  0  0  0
   -6.4818    0.0168    4.3633 C   0  0  0  0  0  0  0  0  0  0  0  0
   -7.0736   -1.0694    5.0031 C   0  0  0  0  0  0  0  0  0  0  0  0
   -6.2867   -1.9454    5.7449 C   0  0  0  0  0  0  0  0  0  0  0  0
   -4.9091   -1.7325    5.8450 C   0  0  0  0  0  0  0  0  0  0  0  0
    6.4451   -1.3424    6.1153 N   0  0  0  0  0  0  0  0  0  0  0  0
    7.8414   -1.3521    6.3560 O   0  0  0  0  0  0  0  0  0  0  0  0
    3.8414   -1.0610    6.5587 H   0  0  0  0  0  0  0  0  0  0  0  0
    4.2854   -0.2076    5.0637 H   0  0  0  0  0  0  0  0  0  0  0  0
    4.0914    1.9784    6.2222 H   0  0  0  0  0  0  0  0  0  0  0  0
    3.7941    1.1765    7.7554 H   0  0  0  0  0  0  0  0  0  0  0  0
    1.7013    1.9939    6.8838 H   0  0  0  0  0  0  0  0  0  0  0  0
    1.6706    0.2329    6.9095 H   0  0  0  0  0  0  0  0  0  0  0  0
    2.3479    1.8712    4.4115 H   0  0  0  0  0  0  0  0  0  0  0  0
    2.0469    0.1367    4.4724 H   0  0  0  0  0  0  0  0  0  0  0  0
    0.0002    2.3365    5.0647 H   0  0  0  0  0  0  0  0  0  0  0  0
    0.1362    1.4233    3.5710 H   0  0  0  0  0  0  0  0  0  0  0  0
   -0.5902    0.2775    6.3203 H   0  0  0  0  0  0  0  0  0  0  0  0
   -0.3270   -0.7065    4.8622 H   0  0  0  0  0  0  0  0  0  0  0  0
   -2.4551   -1.2059    5.9229 H   0  0  0  0  0  0  0  0  0  0  0  0
   -4.6857    1.0893    3.9484 H   0  0  0  0  0  0  0  0  0  0  0  0
   -7.0909    0.7051    3.7825 H   0  0  0  0  0  0  0  0  0  0  0  0
   -8.1453   -1.2308    4.9226 H   0  0  0  0  0  0  0  0  0  0  0  0
   -6.7442   -2.7944    6.2462 H   0  0  0  0  0  0  0  0  0  0  0  0
   -4.3196   -2.4323    6.4310 H   0  0  0  0  0  0  0  0  0  0  0  0
    6.1388   -1.8370    5.2841 H   0  0  0  0  0  0  0  0  0  0  0  0
    7.9753   -0.5172    6.8581 H   0  0  0  0  0  0  0  0  0  0  0  0
   -3.0000   -2.6000    1.2500 Ti  0  0  0  0  0  0  0  0  0  0  0  0
    0.0000   -2.6000    1.2500 Ti  0  0  0  0  0  0  0  0  0  0  0  0
    3.0000   -2.6000    1.2500 Ti  0  0  0  0  0  0  0  0  0  0  0  0
   -1.5000    0.0000    1.2500 Ti  0  0  0  0  0  0  0  0  0  0  0  0
    1.5000    0.0000    1.2500 Ti  0  0  0  0  0  0  0  0  0  0  0  0
    0.0000    2.6000    1.2500 Ti  0  0  0  0  0  0  0  0  0  0  0  0
   -3.0000   -2.6000   -1.2500 Ti  0  0  0  0  0  0  0  0  0  0  0  0
    0.0000   -2.6000   -1.2500 Ti  0  0  0  0  0  0  0  0  0  0  0  0
    3.0000   -2.6000   -1.2500 Ti  0  0  0  0  0  0  0  0  0  0  0  0
   -1.5000    0.0000   -1.2500 Ti  0  0  0  0  0  0  0  0  0  0  0  0
    1.5000    0.0000   -1.2500 Ti  0  0  0  0  0  0  0  0  0  0  0  0
    0.0000    2.6000   -1.2500 Ti  0  0  0  0  0  0  0  0  0  0  0  0
   -1.5000   -1.3000    0.0000 C   0  0  0  0  0  0  0  0  0  0  0  0
    1.5000   -1.3000    0.0000 C   0  0  0  0  0  0  0  0  0  0  0  0
    0.0000    1.3000    0.0000 C   0  0  0  0  0  0  0  0  0  0  0  0
   -3.0000    0.0000    0.0000 C   0  0  0  0  0  0  0  0  0  0  0  0
    3.0000    0.0000    0.0000 C   0  0  0  0  0  0  0  0  0  0  0  0
   -1.5000    2.6000    0.0000 C   0  0  0  0  0  0  0  0  0  0  0  0
    1.5000    2.6000    0.0000 C   0  0  0  0  0  0  0  0  0  0  0  0
   -3.0000   -2.6000    2.4500 O   0  0  0  0  0  0  0  0  0  0  0  0
    0.0000   -2.6000    2.4500 O   0  0  0  0  0  0  0  0  0  0  0  0
    3.0000   -2.6000    2.4500 O   0  0  0  0  0  0  0  0  0  0  0  0
   -1.5000    0.0000    2.4500 O   0  0  0  0  0  0  0  0  0  0  0  0
    1.5000    0.0000    2.4500 O   0  0  0  0  0  0  0  0  0  0  0  0
   -1.5000    2.6000    2.4500 O   0  0  0  0  0  0  0  0  0  0  0  0
    1.5000    2.6000    2.4500 O   0  0  0  0  0  0  0  0  0  0  0  0
   -3.0000   -2.6000   -2.4500 O   0  0  0  0  0  0  0  0  0  0  0  0
    0.0000   -2.6000   -2.4500 O   0  0  0  0  0  0  0  0  0  0  0  0
    3.0000   -2.6000   -2.4500 O   0  0  0  0  0  0  0  0  0  0  0  0
   -1.5000    0.0000   -2.4500 O   0  0  0  0  0  0  0  0  0  0  0  0
    1.5000    0.0000   -2.4500 O   0  0  0  0  0  0  0  0  0  0  0  0
   -1.5000    2.6000   -2.4500 O   0  0  0  0  0  0  0  0  0  0  0  0
    1.5000    2.6000   -2.4500 O   0  0  0  0  0  0  0  0  0  0  0  0
  1  2  2  0  0  0  0
  2  3  1  0  0  0  0
  3  4  1  0  0  0  0
  4  5  1  0  0  0  0
  5  6  1  0  0  0  0
  6  7  1  0  0  0  0
  7  8  1  0  0  0  0
  8  9  1  0  0  0  0
  9 10  2  0  0  0  0
  9 11  1  0  0  0  0
 11 12  1  0  0  0  0
 12 13  4  0  0  0  0
 13 14  4  0  0  0  0
 14 15  4  0  0  0  0
 15 16  4  0  0  0  0
 12 17  4  0  0  0  0
 16 17  4  0  0  0  0
  2 18  4  0  0  0  0
 18 19  1  0  0  0  0
  3 20  1  0  0  0  0
  3 21  1  0  0  0  0
  4 22  1  0  0  0  0
  4 23  1  0  0  0  0
  5 24  1  0  0  0  0
  5 25  1  0  0  0  0
  6 26  1  0  0  0  0
  6 27  1  0  0  0  0
  7 28  1  0  0  0  0
  7 29  1  0  0  0  0
  8 30  1  0  0  0  0
  8 31  1  0  0  0  0
 11 32  1  0  0  0  0
 13 33  1  0  0  0  0
 14 34  1  0  0  0  0
 15 35  1  0  0  0  0
 16 36  1  0  0  0  0
 17 37  1  0  0  0  0
 18 38  1  0  0  0  0
 19 39  1  0  0  0  0
 40 41  1  0  0  0  0
 41 42  1  0  0  0  0
 40 46  1  0  0  0  0
 41 47  1  0  0  0  0
 46 47  1  0  0  0  0
 42 48  1  0  0  0  0
 47 48  1  0  0  0  0
 43 52  1  0  0  0  0
 49 52  1  0  0  0  0
 44 53  1  0  0  0  0
 50 53  1  0  0  0  0
 45 54  1  0  0  0  0
 51 54  1  0  0  0  0
 43 55  1  0  0  0  0
 49 55  1  0  0  0  0
 52 55  1  0  0  0  0
 44 56  1  0  0  0  0
 50 56  1  0  0  0  0
 53 56  1  0  0  0  0
 45 57  1  0  0  0  0
 51 57  1  0  0  0  0
 54 57  1  0  0  0  0
 45 58  1  0  0  0  0
 51 58  1  0  0  0  0
 54 58  1  0  0  0  0
 40 59  2  0  0  0  0
 41 60  2  0  0  0  0
 42 61  2  0  0  0  0
 43 62  2  0  0  0  0
 44 63  2  0  0  0  0
 45 64  1  0  0  0  0
 57 64  1  0  0  0  0
 45 65  1  0  0  0  0
 58 65  1  0  0  0  0
 46 66  2  0  0  0  0
 47 67  2  0  0  0  0
 48 68  2  0  0  0  0
 49 69  2  0  0  0  0
 50 70  2  0  0  0  0
 51 71  1  0  0  0  0
 57 71  1  0  0  0  0
 51 72  1  0  0  0  0
 58 72  1  0  0  0  0
M  END
